version 2
run Wireless03-0-20210830-23:54:31-24368
attr configname Wireless03
attr datetime 20210830-23:54:31
attr experiment Wireless03
attr inifile omnetpp.ini
attr iterationvars ""
attr iterationvarsf ""
attr measurement ""
attr network WirelessB
attr processid 24368
attr repetition 0
attr replication #0
attr resultdir results
attr runnumber 0
attr seedset 0
param *.host*.wlan[0].radio.transmitter.communicationRange 250m
param *.hostR1.wlan[0].radio.displayCommunicationRange true
param *.hostA.wlan[0].radio.displayCommunicationRange true
param *.visualizer.sceneVisualizer.descriptionFigure "\"title\""
param *.visualizer.mediumVisualizer.displaySignals true
param *.visualizer.physicalLinkVisualizer.displayLinks true
param *.visualizer.physicalLinkVisualizer.packetFilter "\"UDPData*\""
param *.host*.ipv4.arp.typename "\"GlobalArp\""
param *.hostA.numApps 1
param *.hostA.app[0].typename "\"UdpBasicApp\""
param *.hostA.app[0].destAddresses "\"hostB\""
param *.hostA.app[0].destPort 5000
param *.hostA.app[0].messageLength 1000B
param *.hostA.app[0].sendInterval exponential(12ms)
param *.hostA.app[0].packetName "\"UDPData\""
param *.hostB.numApps 1
param *.hostB.app[0].typename "\"UdpSink\""
param *.hostB.app[0].localPort 5000
param *.host*.wlan[0].typename "\"AckingWirelessInterface\""
param *.host*.wlan[0].mac.useAck false
param *.host*.wlan[0].mac.fullDuplex false
param *.host*.wlan[0].radio.transmitter.communicationRange 400m
param *.host*.wlan[0].radio.receiver.ignoreInterference true
param *.host*.wlan[0].mac.headerLength 23B
param *.host*.**.bitrate 1Mbps

vector 0 WirelessB.hostA.wlan[0].radio radioMode:vector ETV
attr interpolationmode sample-hold
attr source radioModeChanged
attr title "Radio mode, vector"
vector 1 WirelessB.hostB.wlan[0].radio radioMode:vector ETV
attr interpolationmode sample-hold
attr source radioModeChanged
attr title "Radio mode, vector"
vector 2 WirelessB.hostR1.wlan[0].radio radioMode:vector ETV
attr interpolationmode sample-hold
attr source radioModeChanged
attr title "Radio mode, vector"
vector 3 WirelessB.hostR2.wlan[0].radio radioMode:vector ETV
attr interpolationmode sample-hold
attr source radioModeChanged
attr title "Radio mode, vector"
vector 4 WirelessB.hostR3.wlan[0].radio radioMode:vector ETV
attr interpolationmode sample-hold
attr source radioModeChanged
attr title "Radio mode, vector"
vector 5 WirelessB.hostA.wlan[0].radio receptionState:vector ETV
attr interpolationmode sample-hold
attr source receptionStateChanged
attr title "Radio reception state, vector"
vector 6 WirelessB.hostB.wlan[0].radio receptionState:vector ETV
attr interpolationmode sample-hold
attr source receptionStateChanged
attr title "Radio reception state, vector"
vector 7 WirelessB.hostR1.wlan[0].radio receptionState:vector ETV
attr interpolationmode sample-hold
attr source receptionStateChanged
attr title "Radio reception state, vector"
vector 8 WirelessB.hostR2.wlan[0].radio receptionState:vector ETV
attr interpolationmode sample-hold
attr source receptionStateChanged
attr title "Radio reception state, vector"
vector 9 WirelessB.hostR3.wlan[0].radio receptionState:vector ETV
attr interpolationmode sample-hold
attr source receptionStateChanged
attr title "Radio reception state, vector"
vector 10 WirelessB.hostA.app[0] packetSent:vector(packetBytes) ETV
attr interpolationmode none
attr source packetSent
attr title "packets sent, vector(packetBytes)"
vector 11 WirelessB.hostA.udp packetSent:vector(packetBytes) ETV
attr interpolationmode none
attr source packetSent
attr title "packets sent, vector(packetBytes)"
vector 12 WirelessB.hostA.wlan[0].mac rcvdPkFromHl:vector(packetBytes) ETV
attr interpolationmode none
attr source packetReceivedFromUpper
attr title "packets received from higher layer, vector(packetBytes)"
vector 13 WirelessB.hostA.wlan[0].mac.queue packetPushed:vector(packetBytes) ETV
attr interpolationmode none
attr title "packet pushed, vector(packetBytes)"
vector 14 WirelessB.hostA.wlan[0].mac.queue queueLength:vector ETV
attr interpolationmode sample-hold
attr source "count(packetPushed) - count(packetPopped) - count(packetRemoved) - count(packetDropped)"
attr title "queue length, vector"
vector 15 WirelessB.hostA.wlan[0].mac.queue packetPopped:vector(packetBytes) ETV
attr interpolationmode none
attr title "packet popped, vector(packetBytes)"
vector 16 WirelessB.hostA.wlan[0].mac.queue queueingTime:vector ETV
attr interpolationmode none
attr source queueingTime(packetPopped)
attr title "queueing times, vector"
attr unit s
vector 17 WirelessB.hostA.wlan[0].radio transmissionState:vector ETV
attr interpolationmode sample-hold
attr source transmissionStateChanged
attr title "Radio transmission state, vector"
vector 18 WirelessB.hostA.wlan[0].mac sentDownPk:vector(packetBytes) ETV
attr interpolationmode none
attr source packetSentToLower
attr title "packets sent to lower layer, vector(packetBytes)"
vector 19 WirelessB.hostR2.wlan[0].mac rcvdPkFromLl:vector(packetBytes) ETV
attr interpolationmode none
attr source packetReceivedFromLower
attr title "packets received from lower layer, vector(packetBytes)"
vector 20 WirelessB.hostR2.wlan[0].mac packetDropNotAddressedToUs:vector(packetBytes) ETV
attr interpolationmode none
attr source packetDropReasonIsNotAddressedToUs(packetDropped)
attr title "packet drop: not addressed to us, vector(packetBytes)"
vector 21 WirelessB.hostR1.wlan[0].mac rcvdPkFromLl:vector(packetBytes) ETV
attr interpolationmode none
attr source packetReceivedFromLower
attr title "packets received from lower layer, vector(packetBytes)"
vector 22 WirelessB.hostR1.wlan[0].mac packetDropNotAddressedToUs:vector(packetBytes) ETV
attr interpolationmode none
attr source packetDropReasonIsNotAddressedToUs(packetDropped)
attr title "packet drop: not addressed to us, vector(packetBytes)"
vector 23 WirelessB.hostA.app[0] throughput:vector ETV
attr source throughput(packetReceived)
attr title "throughput, vector"
attr unit bps
vector 24 WirelessB.hostB.app[0] throughput:vector ETV
attr source throughput(packetReceived)
attr title "throughput, vector"
attr unit bps
0	0	0	0
0	0	0	0
0	0	0	2
0	8	0.022315250545	3
0	18	0.030819250545	2
0	18	0.030819250545	3
0	34	0.039323250545	2
0	34	0.039323250545	3
0	47	0.047827250545	2
0	58	0.053995414818	3
0	69	0.062499414818	2
0	69	0.062499414818	3
0	85	0.071003414818	2
0	85	0.071003414818	3
0	98	0.079507414818	2
0	110	0.089528900904	3
0	120	0.098032900904	2
0	120	0.098032900904	3
0	132	0.106536900904	2
0	142	0.107003186959	3
0	153	0.115507186959	2
0	153	0.115507186959	3
0	166	0.124011186959	2
0	178	0.15031620375	3
0	188	0.15882020375	2
0	188	0.15882020375	3
0	200	0.16732420375	2
0	211	0.176621680585	3
0	222	0.185125680585	2
0	222	0.185125680585	3
0	234	0.193629680585	2
0	246	0.203690215556	3
0	252	0.212194215556	2
0	262	0.21250978861	3
0	268	0.22101378861	2
0	279	0.226141055911	3
0	286	0.234645055911	2
0	296	0.241443788338	3
0	303	0.249947788338	2
0	313	0.251911642679	3
0	320	0.260415642679	2
0	330	0.261161658581	3
0	336	0.269665658581	2
0	347	0.278218034742	3
0	358	0.286722034742	2
0	358	0.286722034742	3
0	378	0.295226034742	2
0	378	0.295226034742	3
0	391	0.303730034742	2
0	391	0.303730034742	3
0	416	0.312234034742	2
0	416	0.312234034742	3
0	441	0.320738034742	2
0	441	0.320738034742	3
0	458	0.329242034742	2
0	458	0.329242034742	3
0	471	0.337746034742	2
0	471	0.337746034742	3
0	484	0.346250034742	2
0	484	0.346250034742	3
0	501	0.354754034742	2
0	501	0.354754034742	3
0	518	0.363258034742	2
0	518	0.363258034742	3
0	531	0.371762034742	2
0	531	0.371762034742	3
0	548	0.380266034742	2
0	548	0.380266034742	3
0	561	0.388770034742	2
0	561	0.388770034742	3
0	574	0.397274034742	2
0	585	0.400388501443	3
0	596	0.408892501443	2
0	596	0.408892501443	3
0	608	0.417396501443	2
0	620	0.443645800365	3
0	626	0.452149800365	2
0	636	0.456351809943	3
0	651	0.464855809943	2
0	651	0.464855809943	3
0	663	0.473359809943	2
0	663	0.473359809943	3
0	680	0.481863809943	2
0	680	0.481863809943	3
0	693	0.490367809943	2
0	703	0.491823022072	3
0	718	0.500327022072	2
0	718	0.500327022072	3
0	731	0.508831022072	2
0	731	0.508831022072	3
0	748	0.517335022072	2
0	748	0.517335022072	3
0	761	0.525839022072	2
0	773	0.547396382404	3
0	779	0.555900382404	2
0	789	0.560090299364	3
0	796	0.568594299364	2
0	806	0.572186530309	3
0	813	0.580690530309	2
0	824	0.636507734512	3
0	830	0.645011734512	2
0	840	0.646970724756	3
0	851	0.655474724756	2
0	851	0.655474724756	3
0	867	0.663978724756	2
0	867	0.663978724756	3
0	880	0.672482724756	2
0	890	0.672839241789	3
0	901	0.681343241789	2
0	901	0.681343241789	3
0	914	0.689847241789	2
0	924	0.691267276166	3
0	935	0.699771276166	2
0	935	0.699771276166	3
0	948	0.708275276166	2
0	959	0.713925570285	3
0	966	0.722429570285	2
0	977	0.749771848987	3
0	983	0.758275848987	2
0	993	0.762807081558	3
0	1004	0.771311081558	2
0	1004	0.771311081558	3
0	1020	0.779815081558	2
0	1020	0.779815081558	3
0	1037	0.788319081558	2
0	1037	0.788319081558	3
0	1050	0.796823081558	2
0	1062	0.830993112566	3
0	1068	0.839497112566	2
0	1079	0.856256968176	3
0	1085	0.864760968176	2
0	1095	0.864807971296	3
0	1113	0.873311971296	2
0	1113	0.873311971296	3
0	1130	0.881815971296	2
0	1130	0.881815971296	3
0	1143	0.890319971296	2
0	1143	0.890319971296	3
0	1156	0.898823971296	2
0	1156	0.898823971296	3
0	1169	0.907327971296	2
0	1181	0.926630920731	3
0	1191	0.935134920731	2
0	1191	0.935134920731	3
0	1207	0.943638920731	2
0	1207	0.943638920731	3
0	1220	0.952142920731	2
0	1231	0.953846192005	3
0	1238	0.962350192005	2
0	1249	0.979337038369	3
0	1255	0.987841038369	2
0	1266	1.009383979766	3
0	1276	1.017887979766	2
0	1276	1.017887979766	3
0	1292	1.026391979766	2
0	1292	1.026391979766	3
0	1305	1.034895979766	2
0	1317	1.046349733606	3
0	1323	1.054853733606	2
0	1333	1.054884708853	3
0	1339	1.063388708853	2
0	1351	1.084711697137	3
0	1357	1.093215697137	2
0	1368	1.115195351233	3
0	1386	1.123699351233	2
0	1386	1.123699351233	3
0	1398	1.132203351233	2
0	1398	1.132203351233	3
0	1411	1.140707351233	2
0	1411	1.140707351233	3
0	1428	1.149211351233	2
0	1428	1.149211351233	3
0	1445	1.157715351233	2
0	1445	1.157715351233	3
0	1458	1.166219351233	2
0	1470	1.177018180335	3
0	1480	1.185522180335	2
0	1480	1.185522180335	3
0	1496	1.194026180335	2
0	1496	1.194026180335	3
0	1517	1.202530180335	2
0	1517	1.202530180335	3
0	1538	1.211034180335	2
0	1538	1.211034180335	3
0	1555	1.219538180335	2
0	1555	1.219538180335	3
0	1568	1.228042180335	2
0	1568	1.228042180335	3
0	1589	1.236546180335	2
0	1589	1.236546180335	3
0	1606	1.245050180335	2
0	1606	1.245050180335	3
0	1619	1.253554180335	2
0	1619	1.253554180335	3
0	1636	1.262058180335	2
0	1636	1.262058180335	3
0	1653	1.270562180335	2
0	1653	1.270562180335	3
0	1666	1.279066180335	2
0	1666	1.279066180335	3
0	1679	1.287570180335	2
0	1690	1.291819591578	3
0	1697	1.300323591578	2
0	1707	1.304043496338	3
0	1714	1.312547496338	2
0	1725	1.33070157912	3
0	1731	1.33920557912	2
0	1741	1.344376874682	3
0	1752	1.352880874682	2
0	1752	1.352880874682	3
0	1764	1.361384874682	2
0	1776	1.397649506413	3
0	1786	1.406153506413	2
0	1786	1.406153506413	3
0	1798	1.414657506413	2
0	1809	1.416613648884	3
0	1820	1.425117648884	2
0	1820	1.425117648884	3
0	1832	1.433621648884	2
0	1843	1.436485703045	3
0	1858	1.444989703045	2
0	1858	1.444989703045	3
0	1870	1.453493703045	2
0	1870	1.453493703045	3
0	1883	1.461997703045	2
0	1895	1.484815940304	3
0	1901	1.493319940304	2
0	1911	1.495470277229	3
0	1918	1.503974277229	2
0	1928	1.508404295839	3
0	1935	1.516908295839	2
0	1945	1.517546709095	3
0	1955	1.526050709095	2
0	1955	1.526050709095	3
0	1972	1.534554709095	2
0	1972	1.534554709095	3
0	1989	1.543058709095	2
0	1989	1.543058709095	3
0	2006	1.551562709095	2
0	2006	1.551562709095	3
0	2023	1.560066709095	2
0	2023	1.560066709095	3
0	2036	1.568570709095	2
0	2046	1.568751879655	3
0	2057	1.577255879655	2
0	2057	1.577255879655	3
0	2074	1.585759879655	2
0	2074	1.585759879655	3
0	2087	1.594263879655	2
0	2097	1.595227235163	3
0	2104	1.603731235163	2
0	2116	1.620516606422	3
0	2134	1.629020606422	2
0	2134	1.629020606422	3
0	2146	1.637524606422	2
0	2146	1.637524606422	3
0	2167	1.646028606422	2
0	2167	1.646028606422	3
0	2180	1.654532606422	2
0	2180	1.654532606422	3
0	2193	1.663036606422	2
0	2193	1.663036606422	3
0	2206	1.671540606422	2
0	2217	1.679938071424	3
0	2232	1.688442071424	2
0	2232	1.688442071424	3
0	2252	1.696946071424	2
0	2252	1.696946071424	3
0	2265	1.705450071424	2
0	2265	1.705450071424	3
0	2278	1.713954071424	2
0	2278	1.713954071424	3
0	2291	1.722458071424	2
0	2303	1.740293698477	3
0	2313	1.748797698477	2
0	2313	1.748797698477	3
0	2329	1.757301698477	2
0	2329	1.757301698477	3
0	2350	1.765805698477	2
0	2350	1.765805698477	3
0	2367	1.774309698477	2
0	2367	1.774309698477	3
0	2384	1.782813698477	2
0	2384	1.782813698477	3
0	2397	1.791317698477	2
0	2397	1.791317698477	3
0	2414	1.799821698477	2
0	2414	1.799821698477	3
0	2427	1.808325698477	2
0	2439	1.82463349594	3
0	2449	1.83313749594	2
0	2449	1.83313749594	3
0	2469	1.84164149594	2
0	2469	1.84164149594	3
0	2482	1.85014549594	2
0	2482	1.85014549594	3
0	2499	1.85864949594	2
0	2499	1.85864949594	3
0	2512	1.86715349594	2
0	2524	1.877944088658	3
0	2538	1.886448088658	2
0	2538	1.886448088658	3
0	2554	1.894952088658	2
0	2554	1.894952088658	3
0	2567	1.903456088658	2
0	2567	1.903456088658	3
0	2580	1.911960088658	2
0	2592	1.935117218811	3
0	2602	1.943621218811	2
0	2602	1.943621218811	3
0	2622	1.952125218811	2
0	2622	1.952125218811	3
0	2647	1.960629218811	2
0	2647	1.960629218811	3
0	2660	1.969133218811	2
0	2660	1.969133218811	3
0	2677	1.977637218811	2
0	2677	1.977637218811	3
0	2690	1.986141218811	2
0	2690	1.986141218811	3
0	2703	1.994645218811	2
0	2703	1.994645218811	3
0	2716	2.003149218811	2
0	2727	2.008682702821	3
0	2734	2.017186702821	2
0	2744	2.025318199045	3
0	2755	2.033822199045	2
0	2755	2.033822199045	3
0	2771	2.042326199045	2
0	2771	2.042326199045	3
0	2796	2.050830199045	2
0	2796	2.050830199045	3
0	2813	2.059334199045	2
0	2813	2.059334199045	3
0	2826	2.067838199045	2
0	2826	2.067838199045	3
0	2839	2.076342199045	2
0	2839	2.076342199045	3
0	2856	2.084846199045	2
0	2856	2.084846199045	3
0	2869	2.093350199045	2
0	2881	2.114953076649	3
0	2887	2.123457076649	2
0	2897	2.126198741262	3
0	2904	2.134702741262	2
0	2914	2.13709430959	3
0	2921	2.14559830959	2
0	2931	2.155464284305	3
0	2942	2.163968284305	2
0	2942	2.163968284305	3
0	2958	2.172472284305	2
0	2958	2.172472284305	3
0	2975	2.180976284305	2
0	2975	2.180976284305	3
0	2988	2.189480284305	2
0	3000	2.237364121944	3
0	3010	2.245868121944	2
0	3010	2.245868121944	3
0	3022	2.254372121944	2
0	3032	2.254734893547	3
0	3039	2.263238893547	2
0	3051	2.278700957157	3
0	3057	2.287204957157	2
0	3067	2.295377081922	3
0	3074	2.303881081922	2
0	3085	2.335432293928	3
0	3091	2.343936293928	2
0	3101	2.345128054569	3
0	3115	2.353632054569	2
0	3115	2.353632054569	3
0	3132	2.362136054569	2
0	3132	2.362136054569	3
0	3149	2.370640054569	2
0	3149	2.370640054569	3
0	3166	2.379144054569	2
0	3166	2.379144054569	3
0	3179	2.387648054569	2
0	3179	2.387648054569	3
0	3192	2.396152054569	2
0	3204	2.413484220935	3
0	3210	2.421988220935	2
0	3220	2.427177875769	3
0	3235	2.435681875769	2
0	3235	2.435681875769	3
0	3251	2.444185875769	2
0	3251	2.444185875769	3
0	3264	2.452689875769	2
0	3264	2.452689875769	3
0	3277	2.461193875769	2
0	3287	2.462518001412	3
0	3294	2.471022001412	2
0	3306	2.507478336778	3
0	3312	2.515982336778	2
0	3322	2.519015611637	3
0	3329	2.527519611637	2
0	3339	2.528399320288	3
0	3345	2.536903320288	2
0	3357	2.551539641931	3
0	3363	2.560043641931	2
0	3373	2.567882822623	3
0	3384	2.576386822623	2
0	3384	2.576386822623	3
0	3396	2.584890822623	2
0	3407	2.589261857957	3
0	3414	2.597765857957	2
0	3424	2.600470581948	3
0	3431	2.608974581948	2
0	3441	2.615521021189	3
0	3452	2.624025021189	2
0	3452	2.624025021189	3
0	3468	2.632529021189	2
0	3468	2.632529021189	3
0	3481	2.641033021189	2
0	3493	2.658861194437	3
0	3507	2.667365194437	2
0	3507	2.667365194437	3
0	3519	2.675869194437	2
0	3519	2.675869194437	3
0	3532	2.684373194437	2
0	3543	2.689359323221	3
0	3550	2.697863323221	2
0	3561	2.717533448358	3
0	3567	2.726037448358	2
0	3577	2.729987649264	3
0	3588	2.738491649264	2
0	3588	2.738491649264	3
0	3608	2.746995649264	2
0	3608	2.746995649264	3
0	3629	2.755499649264	2
0	3629	2.755499649264	3
0	3642	2.764003649264	2
0	3642	2.764003649264	3
0	3655	2.772507649264	2
0	3655	2.772507649264	3
0	3672	2.781011649264	2
0	3672	2.781011649264	3
0	3685	2.789515649264	2
0	3696	2.794292667356	3
0	3707	2.802796667356	2
0	3707	2.802796667356	3
0	3723	2.811300667356	2
0	3723	2.811300667356	3
0	3736	2.819804667356	2
0	3747	2.82818319492	3
0	3758	2.83668719492	2
0	3758	2.83668719492	3
0	3770	2.84519119492	2
0	3782	2.85678383632	3
0	3792	2.86528783632	2
0	3792	2.86528783632	3
0	3804	2.87379183632	2
0	3816	2.899186135035	3
0	3826	2.907690135035	2
0	3826	2.907690135035	3
0	3838	2.916194135035	2
0	3849	2.921764607637	3
0	3860	2.930268607637	2
0	3860	2.930268607637	3
0	3872	2.938772607637	2
0	3882	2.93949877175	3
0	3889	2.94800277175	2
0	3900	2.951969239389	3
0	3915	2.960473239389	2
0	3915	2.960473239389	3
0	3927	2.968977239389	2
0	3927	2.968977239389	3
0	3944	2.977481239389	2
0	3944	2.977481239389	3
0	3957	2.985985239389	2
0	3968	2.993621644573	3
0	3975	3.002125644573	2
0	3985	3.007103170568	3
0	4000	3.015607170568	2
0	4000	3.015607170568	3
0	4012	3.024111170568	2
0	4012	3.024111170568	3
0	4029	3.032615170568	2
0	4029	3.032615170568	3
0	4046	3.041119170568	2
0	4046	3.041119170568	3
0	4059	3.049623170568	2
0	4070	3.057416293226	3
0	4089	3.065920293226	2
0	4089	3.065920293226	3
0	4101	3.074424293226	2
0	4101	3.074424293226	3
0	4122	3.082928293226	2
0	4122	3.082928293226	3
0	4135	3.091432293226	2
0	4135	3.091432293226	3
0	4156	3.099936293226	2
0	4156	3.099936293226	3
0	4173	3.108440293226	2
0	4173	3.108440293226	3
0	4190	3.116944293226	2
0	4190	3.116944293226	3
0	4203	3.125448293226	2
0	4203	3.125448293226	3
0	4224	3.133952293226	2
0	4224	3.133952293226	3
0	4245	3.142456293226	2
0	4245	3.142456293226	3
0	4258	3.150960293226	2
0	4258	3.150960293226	3
0	4279	3.159464293226	2
0	4279	3.159464293226	3
0	4300	3.167968293226	2
0	4300	3.167968293226	3
0	4313	3.176472293226	2
0	4313	3.176472293226	3
0	4326	3.184976293226	2
0	4326	3.184976293226	3
0	4343	3.193480293226	2
0	4343	3.193480293226	3
0	4356	3.201984293226	2
0	4356	3.201984293226	3
0	4369	3.210488293226	2
0	4369	3.210488293226	3
0	4382	3.218992293226	2
0	4394	3.235637602849	3
0	4400	3.244141602849	2
0	4410	3.250225888529	3
0	4421	3.258729888529	2
0	4421	3.258729888529	3
0	4437	3.267233888529	2
0	4437	3.267233888529	3
0	4454	3.275737888529	2
0	4454	3.275737888529	3
0	4467	3.284241888529	2
0	4478	3.290261081559	3
0	4485	3.298765081559	2
0	4495	3.301452423822	3
0	4506	3.309956423822	2
0	4506	3.309956423822	3
0	4522	3.318460423822	2
0	4522	3.318460423822	3
0	4535	3.326964423822	2
0	4547	3.337027430445	3
0	4557	3.345531430445	2
0	4557	3.345531430445	3
0	4569	3.354035430445	2
0	4580	3.360247898417	3
0	4591	3.368751898417	2
0	4591	3.368751898417	3
0	4603	3.377255898417	2
0	4614	3.383032573813	3
0	4625	3.391536573813	2
0	4625	3.391536573813	3
0	4637	3.400040573813	2
0	4649	3.413642967983	3
0	4659	3.422146967983	2
0	4659	3.422146967983	3
0	4671	3.430650967983	2
0	4682	3.434047032374	3
0	4689	3.442551032374	2
0	4700	3.477962920343	3
0	4706	3.486466920343	2
0	4717	3.501755907198	3
0	4723	3.510259907198	2
0	4733	3.519948734356	3
0	4740	3.528452734356	2
0	4751	3.570371047471	3
0	4757	3.578875047471	2
0	4767	3.587179155835	3
0	4782	3.595683155835	2
0	4782	3.595683155835	3
0	4802	3.604187155835	2
0	4802	3.604187155835	3
0	4819	3.612691155835	2
0	4819	3.612691155835	3
0	4840	3.621195155835	2
0	4840	3.621195155835	3
0	4853	3.629699155835	2
0	4853	3.629699155835	3
0	4866	3.638203155835	2
0	4866	3.638203155835	3
0	4879	3.646707155835	2
0	4879	3.646707155835	3
0	4892	3.655211155835	2
0	4903	3.663355801921	3
0	4914	3.671859801921	2
0	4914	3.671859801921	3
0	4930	3.680363801921	2
0	4930	3.680363801921	3
0	4947	3.688867801921	2
0	4947	3.688867801921	3
0	4960	3.697371801921	2
0	4971	3.703429835309	3
0	4982	3.711933835309	2
0	4982	3.711933835309	3
0	4998	3.720437835309	2
0	4998	3.720437835309	3
0	5019	3.728941835309	2
0	5019	3.728941835309	3
0	5032	3.737445835309	2
0	5032	3.737445835309	3
0	5049	3.745949835309	2
0	5049	3.745949835309	3
0	5062	3.754453835309	2
0	5074	3.774753030799	3
0	5084	3.783257030799	2
0	5084	3.783257030799	3
0	5096	3.791761030799	2
0	5108	3.81613337708	3
0	5118	3.82463737708	2
0	5118	3.82463737708	3
0	5138	3.83314137708	2
0	5138	3.83314137708	3
0	5151	3.84164537708	2
0	5151	3.84164537708	3
0	5164	3.85014937708	2
0	5175	3.855542552587	3
0	5186	3.864046552587	2
0	5186	3.864046552587	3
0	5198	3.872550552587	2
0	5208	3.872581250322	3
0	5215	3.881085250322	2
0	5227	3.89253683969	3
0	5237	3.90104083969	2
0	5237	3.90104083969	3
0	5249	3.90954483969	2
0	5260	3.916066003285	3
0	5267	3.924570003285	2
0	5278	3.937301441164	3
0	5292	3.945805441164	2
0	5292	3.945805441164	3
0	5308	3.954309441164	2
0	5308	3.954309441164	3
0	5325	3.962813441164	2
0	5325	3.962813441164	3
0	5342	3.971317441164	2
0	5342	3.971317441164	3
0	5359	3.979821441164	2
0	5359	3.979821441164	3
0	5376	3.988325441164	2
0	5376	3.988325441164	3
0	5393	3.996829441164	2
0	5393	3.996829441164	3
0	5410	4.005333441164	2
0	5410	4.005333441164	3
0	5423	4.013837441164	2
0	5423	4.013837441164	3
0	5440	4.022341441164	2
0	5440	4.022341441164	3
0	5457	4.030845441164	2
0	5457	4.030845441164	3
0	5470	4.039349441164	2
0	5481	4.048468178279	3
0	5488	4.056972178279	2
0	5498	4.057012275066	3
0	5508	4.065516275066	2
0	5508	4.065516275066	3
0	5529	4.074020275066	2
0	5529	4.074020275066	3
0	5542	4.082524275066	2
0	5542	4.082524275066	3
0	5555	4.091028275066	2
0	5566	4.096369917771	3
0	5573	4.104873917771	2
0	5583	4.110094205218	3
0	5602	4.118598205218	2
0	5602	4.118598205218	3
0	5614	4.127102205218	2
0	5614	4.127102205218	3
0	5627	4.135606205218	2
0	5627	4.135606205218	3
0	5648	4.144110205218	2
0	5648	4.144110205218	3
0	5661	4.152614205218	2
0	5661	4.152614205218	3
0	5678	4.161118205218	2
0	5678	4.161118205218	3
0	5691	4.169622205218	2
0	5703	4.191104568732	3
0	5709	4.199608568732	2
0	5719	4.206175290544	3
0	5730	4.214679290544	2
0	5730	4.214679290544	3
0	5746	4.223183290544	2
0	5746	4.223183290544	3
0	5759	4.231687290544	2
0	5771	4.247599084151	3
0	5781	4.256103084151	2
0	5781	4.256103084151	3
0	5801	4.264607084151	2
0	5801	4.264607084151	3
0	5818	4.273111084151	2
0	5818	4.273111084151	3
0	5831	4.281615084151	2
0	5831	4.281615084151	3
0	5844	4.290119084151	2
0	5854	4.290471354355	3
0	5861	4.298975354355	2
0	5872	4.300226134689	3
0	5886	4.308730134689	2
0	5886	4.308730134689	3
0	5903	4.317234134689	2
0	5903	4.317234134689	3
0	5916	4.325738134689	2
0	5916	4.325738134689	3
0	5941	4.334242134689	2
0	5941	4.334242134689	3
0	5962	4.342746134689	2
0	5962	4.342746134689	3
0	5983	4.351250134689	2
0	5983	4.351250134689	3
0	5996	4.359754134689	2
0	5996	4.359754134689	3
0	6009	4.368258134689	2
0	6009	4.368258134689	3
0	6022	4.376762134689	2
0	6022	4.376762134689	3
0	6043	4.385266134689	2
0	6043	4.385266134689	3
0	6056	4.393770134689	2
0	6056	4.393770134689	3
0	6073	4.402274134689	2
0	6073	4.402274134689	3
0	6086	4.410778134689	2
0	6086	4.410778134689	3
0	6099	4.419282134689	2
0	6110	4.422491790324	3
0	6125	4.430995790324	2
0	6125	4.430995790324	3
0	6141	4.439499790324	2
0	6141	4.439499790324	3
0	6154	4.448003790324	2
0	6154	4.448003790324	3
0	6171	4.456507790324	2
0	6171	4.456507790324	3
0	6192	4.465011790324	2
0	6192	4.465011790324	3
0	6205	4.473515790324	2
0	6205	4.473515790324	3
0	6222	4.482019790324	2
0	6222	4.482019790324	3
0	6235	4.490523790324	2
0	6246	4.497142440849	3
0	6265	4.505646440849	2
0	6265	4.505646440849	3
0	6281	4.514150440849	2
0	6281	4.514150440849	3
0	6294	4.522654440849	2
0	6294	4.522654440849	3
0	6307	4.531158440849	2
0	6307	4.531158440849	3
0	6320	4.539662440849	2
0	6332	4.550141536884	3
0	6338	4.558645536884	2
0	6348	4.559933759652	3
0	6358	4.568437759652	2
0	6358	4.568437759652	3
0	6375	4.576941759652	2
0	6375	4.576941759652	3
0	6388	4.585445759652	2
0	6400	4.596683786519	3
0	6410	4.605187786519	2
0	6410	4.605187786519	3
0	6422	4.613691786519	2
0	6434	4.657344237931	3
0	6448	4.665848237931	2
0	6448	4.665848237931	3
0	6464	4.674352237931	2
0	6464	4.674352237931	3
0	6477	4.682856237931	2
0	6477	4.682856237931	3
0	6490	4.691360237931	2
0	6502	4.707430854816	3
0	6508	4.715934854816	2
0	6519	4.740558108284	3
0	6529	4.749062108284	2
0	6529	4.749062108284	3
0	6541	4.757566108284	2
0	6552	4.763285136582	3
0	6559	4.771789136582	2
0	6569	4.779553758748	3
0	6584	4.788057758748	2
0	6584	4.788057758748	3
0	6600	4.796561758748	2
0	6600	4.796561758748	3
0	6617	4.805065758748	2
0	6617	4.805065758748	3
0	6634	4.813569758748	2
0	6634	4.813569758748	3
0	6647	4.822073758748	2
0	6647	4.822073758748	3
0	6664	4.830577758748	2
0	6664	4.830577758748	3
0	6677	4.839081758748	2
0	6687	4.839221654458	3
0	6694	4.847725654458	2
0	6705	4.852905000981	3
0	6712	4.861409000981	2
0	6722	4.864179024811	3
0	6749	4.872683024811	2
0	6749	4.872683024811	3
0	6761	4.881187024811	2
0	6761	4.881187024811	3
0	6774	4.889691024811	2
0	6774	4.889691024811	3
0	6791	4.898195024811	2
0	6791	4.898195024811	3
0	6808	4.906699024811	2
0	6808	4.906699024811	3
0	6825	4.915203024811	2
0	6825	4.915203024811	3
0	6842	4.923707024811	2
0	6842	4.923707024811	3
0	6855	4.932211024811	2
0	6855	4.932211024811	3
0	6876	4.940715024811	2
0	6876	4.940715024811	3
0	6893	4.949219024811	2
0	6893	4.949219024811	3
0	6906	4.957723024811	2
0	6906	4.957723024811	3
0	6923	4.966227024811	2
0	6923	4.966227024811	3
0	6940	4.974731024811	2
0	6940	4.974731024811	3
0	6957	4.983235024811	2
0	6957	4.983235024811	3
0	6970	4.991739024811	2
0	6970	4.991739024811	3
0	6983	5.000243024811	2
0	6995	5.02333767368	3
0	7005	5.03184167368	2
0	7005	5.03184167368	3
0	7029	5.04034567368	2
0	7029	5.04034567368	3
0	7042	5.04884967368	2
0	7042	5.04884967368	3
0	7055	5.05735367368	2
0	7055	5.05735367368	3
0	7072	5.06585767368	2
0	7072	5.06585767368	3
0	7085	5.07436167368	2
0	7096	5.078459817416	3
0	7103	5.086963817416	2
0	7113	5.090720437585	3
0	7124	5.099224437585	2
0	7124	5.099224437585	3
0	7140	5.107728437585	2
0	7140	5.107728437585	3
0	7153	5.116232437585	2
0	7164	5.120153448829	3
0	7175	5.128657448829	2
0	7175	5.128657448829	3
0	7191	5.137161448829	2
0	7191	5.137161448829	3
0	7208	5.145665448829	2
0	7208	5.145665448829	3
0	7225	5.154169448829	2
0	7225	5.154169448829	3
0	7238	5.162673448829	2
0	7250	5.184035463062	3
0	7256	5.192539463062	2
0	7267	5.20712032591	3
0	7277	5.21562432591	2
0	7277	5.21562432591	3
0	7293	5.22412832591	2
0	7293	5.22412832591	3
0	7306	5.23263232591	2
0	7318	5.24283184969	3
0	7324	5.25133584969	2
0	7334	5.258915161234	3
0	7345	5.267419161234	2
0	7345	5.267419161234	3
0	7357	5.275923161234	2
0	7369	5.307674791215	3
0	7379	5.316178791215	2
0	7379	5.316178791215	3
0	7395	5.324682791215	2
0	7395	5.324682791215	3
0	7408	5.333186791215	2
0	7419	5.335274572258	3
0	7430	5.343778572258	2
0	7430	5.343778572258	3
0	7442	5.352282572258	2
0	7454	5.375658368749	3
0	7464	5.384162368749	2
0	7464	5.384162368749	3
0	7480	5.392666368749	2
0	7480	5.392666368749	3
0	7497	5.401170368749	2
0	7497	5.401170368749	3
0	7510	5.409674368749	2
0	7522	5.426615755098	3
0	7540	5.435119755098	2
0	7540	5.435119755098	3
0	7556	5.443623755098	2
0	7556	5.443623755098	3
0	7569	5.452127755098	2
0	7569	5.452127755098	3
0	7582	5.460631755098	2
0	7582	5.460631755098	3
0	7595	5.469135755098	2
0	7605	5.469314401828	3
0	7616	5.477818401828	2
0	7616	5.477818401828	3
0	7633	5.486322401828	2
0	7633	5.486322401828	3
0	7646	5.494826401828	2
0	7658	5.510300217269	3
0	7668	5.518804217269	2
0	7668	5.518804217269	3
0	7688	5.527308217269	2
0	7688	5.527308217269	3
0	7709	5.535812217269	2
0	7709	5.535812217269	3
0	7722	5.544316217269	2
0	7722	5.544316217269	3
0	7739	5.552820217269	2
0	7739	5.552820217269	3
0	7752	5.561324217269	2
0	7752	5.561324217269	3
0	7769	5.569828217269	2
0	7769	5.569828217269	3
0	7786	5.578332217269	2
0	7786	5.578332217269	3
0	7803	5.586836217269	2
0	7803	5.586836217269	3
0	7816	5.595340217269	2
0	7828	5.60716824394	3
0	7838	5.61567224394	2
0	7838	5.61567224394	3
0	7850	5.62417624394	2
0	7861	5.628463042899	3
0	7868	5.636967042899	2
0	7878	5.638188960665	3
0	7888	5.646692960665	2
0	7888	5.646692960665	3
0	7905	5.655196960665	2
0	7905	5.655196960665	3
0	7922	5.663700960665	2
0	7922	5.663700960665	3
0	7951	5.672204960665	2
0	7951	5.672204960665	3
0	7964	5.680708960665	2
0	7964	5.680708960665	3
0	7981	5.689212960665	2
0	7981	5.689212960665	3
0	7994	5.697716960665	2
0	7994	5.697716960665	3
0	8011	5.706220960665	2
0	8011	5.706220960665	3
0	8028	5.714724960665	2
0	8028	5.714724960665	3
0	8045	5.723228960665	2
0	8045	5.723228960665	3
0	8062	5.731732960665	2
0	8062	5.731732960665	3
0	8075	5.740236960665	2
0	8075	5.740236960665	3
0	8092	5.748740960665	2
0	8092	5.748740960665	3
0	8113	5.757244960665	2
0	8113	5.757244960665	3
0	8126	5.765748960665	2
0	8126	5.765748960665	3
0	8139	5.774252960665	2
0	8151	5.789703219809	3
0	8165	5.798207219809	2
0	8165	5.798207219809	3
0	8177	5.806711219809	2
0	8177	5.806711219809	3
0	8190	5.815215219809	2
0	8202	5.837530314119	3
0	8220	5.846034314119	2
0	8220	5.846034314119	3
0	8232	5.854538314119	2
0	8232	5.854538314119	3
0	8249	5.863042314119	2
0	8249	5.863042314119	3
0	8262	5.871546314119	2
0	8262	5.871546314119	3
0	8275	5.880050314119	2
0	8287	5.901004659846	3
0	8297	5.909508659846	2
0	8297	5.909508659846	3
0	8309	5.918012659846	2
0	8321	5.946939515039	3
0	8331	5.955443515039	2
0	8331	5.955443515039	3
0	8343	5.963947515039	2
0	8354	5.973525212147	3
0	8361	5.982029212147	2
0	8371	5.988322276874	3
0	8382	5.996826276874	2
0	8382	5.996826276874	3
0	8394	6.005330276874	2
0	8406	6.019257191921	3
0	8416	6.027761191921	2
0	8416	6.027761191921	3
0	8436	6.036265191921	2
0	8436	6.036265191921	3
0	8449	6.044769191921	2
0	8449	6.044769191921	3
0	8462	6.053273191921	2
0	8474	6.077146741567	3
0	8484	6.085650741567	2
0	8484	6.085650741567	3
0	8496	6.094154741567	2
0	8508	6.107172444793	3
0	8518	6.115676444793	2
0	8518	6.115676444793	3
0	8530	6.124180444793	2
0	8542	6.138380975016	3
0	8548	6.146884975016	2
0	8558	6.147001365039	3
0	8564	6.155505365039	2
0	8574	6.155576975288	3
0	8585	6.164080975288	2
0	8585	6.164080975288	3
0	8602	6.172584975288	2
0	8602	6.172584975288	3
0	8615	6.181088975288	2
0	8627	6.205250229432	3
0	8633	6.213754229432	2
0	8644	6.232053907645	3
0	8650	6.240557907645	2
0	8660	6.245619394025	3
0	8667	6.254123394025	2
0	8677	6.257846832198	3
0	8684	6.266350832198	2
0	8694	6.267385306231	3
0	8708	6.275889306231	2
0	8708	6.275889306231	3
0	8721	6.284393306231	2
0	8721	6.284393306231	3
0	8734	6.292897306231	2
0	8745	6.296412410231	3
0	8752	6.304916410231	2
0	8762	6.308508572717	3
0	8773	6.317012572717	2
0	8773	6.317012572717	3
0	8793	6.325516572717	2
0	8793	6.325516572717	3
0	8810	6.334020572717	2
0	8810	6.334020572717	3
0	8827	6.342524572717	2
0	8827	6.342524572717	3
0	8848	6.351028572717	2
0	8848	6.351028572717	3
0	8865	6.359532572717	2
0	8865	6.359532572717	3
0	8878	6.368036572717	2
0	8878	6.368036572717	3
0	8891	6.376540572717	2
0	8891	6.376540572717	3
0	8912	6.385044572717	2
0	8912	6.385044572717	3
0	8925	6.393548572717	2
0	8925	6.393548572717	3
0	8938	6.402052572717	2
0	8950	6.422822373844	3
0	8956	6.431326373844	2
0	8966	6.436911215486	3
0	8981	6.445415215486	2
0	8981	6.445415215486	3
0	8997	6.453919215486	2
0	8997	6.453919215486	3
0	9010	6.462423215486	2
0	9010	6.462423215486	3
0	9027	6.470927215486	2
0	9027	6.470927215486	3
0	9048	6.479431215486	2
0	9048	6.479431215486	3
0	9065	6.487935215486	2
0	9065	6.487935215486	3
0	9078	6.496439215486	2
0	9078	6.496439215486	3
0	9091	6.504943215486	2
0	9103	6.526245627924	3
0	9109	6.534749627924	2
0	9120	6.547781705292	3
0	9126	6.556285705292	2
0	9137	6.577333436525	3
0	9143	6.585837436525	2
0	9153	6.590539058891	3
0	9164	6.599043058891	2
0	9164	6.599043058891	3
0	9176	6.607547058891	2
0	9187	6.611376859502	3
0	9194	6.619880859502	2
0	9204	6.623926763015	3
0	9215	6.632430763015	2
0	9215	6.632430763015	3
0	9227	6.640934763015	2
0	9239	6.654519809075	3
0	9245	6.663023809075	2
0	9255	6.663902422152	3
0	9261	6.672406422152	2
0	9273	6.720619164514	3
0	9283	6.729123164514	2
0	9283	6.729123164514	3
0	9295	6.737627164514	2
0	9306	6.746136039627	3
0	9317	6.754640039627	2
0	9317	6.754640039627	3
0	9329	6.763144039627	2
0	9341	6.774594045572	3
0	9347	6.783098045572	2
0	9357	6.783889410408	3
0	9363	6.792393410408	2
0	9375	6.810081977079	3
0	9381	6.818585977079	2
0	9392	6.835535830561	3
0	9402	6.844039830561	2
0	9402	6.844039830561	3
0	9418	6.852543830561	2
0	9418	6.852543830561	3
0	9435	6.861047830561	2
0	9435	6.861047830561	3
0	9452	6.869551830561	2
0	9452	6.869551830561	3
0	9469	6.878055830561	2
0	9469	6.878055830561	3
0	9490	6.886559830561	2
0	9490	6.886559830561	3
0	9503	6.895063830561	2
0	9503	6.895063830561	3
0	9528	6.903567830561	2
0	9528	6.903567830561	3
0	9553	6.912071830561	2
0	9553	6.912071830561	3
0	9570	6.920575830561	2
0	9570	6.920575830561	3
0	9587	6.929079830561	2
0	9587	6.929079830561	3
0	9600	6.937583830561	2
0	9600	6.937583830561	3
0	9613	6.946087830561	2
0	9613	6.946087830561	3
0	9630	6.954591830561	2
0	9630	6.954591830561	3
0	9647	6.963095830561	2
0	9647	6.963095830561	3
0	9660	6.971599830561	2
0	9660	6.971599830561	3
0	9681	6.980103830561	2
0	9681	6.980103830561	3
0	9698	6.988607830561	2
0	9698	6.988607830561	3
0	9719	6.997111830561	2
0	9719	6.997111830561	3
0	9736	7.005615830561	2
0	9736	7.005615830561	3
0	9753	7.014119830561	2
0	9753	7.014119830561	3
0	9766	7.022623830561	2
0	9766	7.022623830561	3
0	9779	7.031127830561	2
0	9779	7.031127830561	3
0	9792	7.039631830561	2
0	9792	7.039631830561	3
0	9809	7.048135830561	2
0	9809	7.048135830561	3
0	9822	7.056639830561	2
0	9833	7.065040548472	3
0	9844	7.073544548472	2
0	9844	7.073544548472	3
0	9860	7.082048548472	2
0	9860	7.082048548472	3
0	9877	7.090552548472	2
0	9877	7.090552548472	3
0	9898	7.099056548472	2
0	9898	7.099056548472	3
0	9915	7.107560548472	2
0	9915	7.107560548472	3
0	9932	7.116064548472	2
0	9932	7.116064548472	3
0	9949	7.124568548472	2
0	9949	7.124568548472	3
0	9970	7.133072548472	2
0	9970	7.133072548472	3
0	9987	7.141576548472	2
0	9987	7.141576548472	3
0	10000	7.150080548472	2
0	10000	7.150080548472	3
0	10021	7.158584548472	2
0	10021	7.158584548472	3
0	10034	7.167088548472	2
0	10034	7.167088548472	3
0	10047	7.175592548472	2
0	10047	7.175592548472	3
0	10060	7.184096548472	2
0	10072	7.194471990986	3
0	10078	7.202975990986	2
0	10088	7.207554938024	3
0	10103	7.216058938024	2
0	10103	7.216058938024	3
0	10115	7.224562938024	2
0	10115	7.224562938024	3
0	10128	7.233066938024	2
0	10140	7.245597352266	3
0	10150	7.254101352266	2
0	10150	7.254101352266	3
0	10166	7.262605352266	2
0	10166	7.262605352266	3
0	10183	7.271109352266	2
0	10183	7.271109352266	3
0	10196	7.279613352266	2
0	10208	7.29482101956	3
0	10218	7.30332501956	2
0	10218	7.30332501956	3
0	10230	7.31182901956	2
0	10242	7.333231019829	3
0	10248	7.341735019829	2
0	10258	7.343991249868	3
0	10269	7.352495249868	2
0	10269	7.352495249868	3
0	10281	7.360999249868	2
0	10291	7.361555141641	3
0	10302	7.370059141641	2
0	10302	7.370059141641	3
0	10315	7.378563141641	2
0	10325	7.37964900499	3
0	10332	7.38815300499	2
0	10343	7.39232629692	3
0	10350	7.40083029692	2
0	10361	7.413018999546	3
0	10375	7.421522999546	2
0	10375	7.421522999546	3
0	10387	7.430026999546	2
0	10387	7.430026999546	3
0	10400	7.438530999546	2
0	10412	7.46976915897	3
0	10422	7.47827315897	2
0	10422	7.47827315897	3
0	10434	7.48677715897	2
0	10446	7.510199806629	3
0	10452	7.518703806629	2
0	10462	7.523578208878	3
0	10473	7.532082208878	2
0	10473	7.532082208878	3
0	10489	7.540586208878	2
0	10489	7.540586208878	3
0	10502	7.549090208878	2
0	10514	7.57500366075	3
0	10532	7.58350766075	2
0	10532	7.58350766075	3
0	10544	7.59201166075	2
0	10544	7.59201166075	3
0	10565	7.60051566075	2
0	10565	7.60051566075	3
0	10586	7.60901966075	2
0	10586	7.60901966075	3
0	10599	7.61752366075	2
0	10599	7.61752366075	3
0	10612	7.62602766075	2
0	10612	7.62602766075	3
0	10633	7.63453166075	2
0	10633	7.63453166075	3
0	10654	7.64303566075	2
0	10654	7.64303566075	3
0	10667	7.65153966075	2
0	10667	7.65153966075	3
0	10684	7.66004366075	2
0	10684	7.66004366075	3
0	10697	7.66854766075	2
0	10697	7.66854766075	3
0	10710	7.67705166075	2
0	10710	7.67705166075	3
0	10723	7.68555566075	2
0	10733	7.686411136594	3
0	10740	7.694915136594	2
0	10752	7.720329424241	3
0	10762	7.728833424241	2
0	10762	7.728833424241	3
0	10778	7.737337424241	2
0	10778	7.737337424241	3
0	10791	7.745841424241	2
0	10803	7.758544418795	3
0	10809	7.767048418795	2
0	10819	7.776764848576	3
0	10830	7.785268848576	2
0	10830	7.785268848576	3
0	10842	7.793772848576	2
0	10853	7.796994592516	3
0	10864	7.805498592516	2
0	10864	7.805498592516	3
0	10876	7.814002592516	2
0	10888	7.826992452984	3
0	10902	7.835496452984	2
0	10902	7.835496452984	3
0	10918	7.844000452984	2
0	10918	7.844000452984	3
0	10939	7.852504452984	2
0	10939	7.852504452984	3
0	10952	7.861008452984	2
0	10952	7.861008452984	3
0	10965	7.869512452984	2
0	10965	7.869512452984	3
0	10978	7.878016452984	2
0	10990	7.897165699269	3
0	10996	7.905669699269	2
0	11007	7.924393328308	3
0	11017	7.932897328308	2
0	11017	7.932897328308	3
0	11033	7.941401328308	2
0	11033	7.941401328308	3
0	11050	7.949905328308	2
0	11050	7.949905328308	3
0	11067	7.958409328308	2
0	11067	7.958409328308	3
0	11080	7.966913328308	2
0	11092	7.993271079953	3
0	11106	8.001775079953	2
0	11106	8.001775079953	3
0	11122	8.010279079953	2
0	11122	8.010279079953	3
0	11151	8.018783079953	2
0	11151	8.018783079953	3
0	11164	8.027287079953	2
0	11164	8.027287079953	3
0	11177	8.035791079953	2
0	11177	8.035791079953	3
0	11194	8.044295079953	2
0	11194	8.044295079953	3
0	11219	8.052799079953	2
0	11219	8.052799079953	3
0	11236	8.061303079953	2
0	11236	8.061303079953	3
0	11249	8.069807079953	2
0	11249	8.069807079953	3
0	11266	8.078311079953	2
0	11266	8.078311079953	3
0	11283	8.086815079953	2
0	11283	8.086815079953	3
0	11296	8.095319079953	2
0	11296	8.095319079953	3
0	11309	8.103823079953	2
0	11309	8.103823079953	3
0	11326	8.112327079953	2
0	11326	8.112327079953	3
0	11339	8.120831079953	2
0	11339	8.120831079953	3
0	11360	8.129335079953	2
0	11360	8.129335079953	3
0	11377	8.137839079953	2
0	11377	8.137839079953	3
0	11390	8.146343079953	2
0	11390	8.146343079953	3
0	11403	8.154847079953	2
0	11413	8.155303845578	3
0	11420	8.163807845578	2
0	11431	8.173246618996	3
0	11442	8.181750618996	2
0	11442	8.181750618996	3
0	11454	8.190254618996	2
0	11465	8.192226006808	3
0	11472	8.200730006808	2
0	11482	8.202120867486	3
0	11492	8.210624867486	2
0	11492	8.210624867486	3
0	11513	8.219128867486	2
0	11513	8.219128867486	3
0	11526	8.227632867486	2
0	11526	8.227632867486	3
0	11547	8.236136867486	2
0	11547	8.236136867486	3
0	11560	8.244640867486	2
0	11560	8.244640867486	3
0	11573	8.253144867486	2
0	11584	8.258313855068	3
0	11591	8.266817855068	2
0	11601	8.272066791489	3
0	11608	8.280570791489	2
0	11619	8.29869833775	3
0	11629	8.30720233775	2
0	11629	8.30720233775	3
0	11641	8.31570633775	2
0	11653	8.331930038065	3
0	11659	8.340434038065	2
0	11670	8.370059205523	3
0	11676	8.378563205523	2
0	11687	8.389153632683	3
0	11693	8.397657632683	2
0	11704	8.447204682072	3
0	11714	8.455708682072	2
0	11714	8.455708682072	3
0	11726	8.464212682072	2
0	11738	8.475104313479	3
0	11744	8.483608313479	2
0	11754	8.49277566783	3
0	11761	8.50127966783	2
0	11771	8.508073885261	3
0	11778	8.516577885261	2
0	11788	8.520116177916	3
0	11799	8.528620177916	2
0	11799	8.528620177916	3
0	11815	8.537124177916	2
0	11815	8.537124177916	3
0	11844	8.545628177916	2
0	11844	8.545628177916	3
0	11865	8.554132177916	2
0	11865	8.554132177916	3
0	11886	8.562636177916	2
0	11886	8.562636177916	3
0	11899	8.571140177916	2
0	11899	8.571140177916	3
0	11912	8.579644177916	2
0	11912	8.579644177916	3
0	11929	8.588148177916	2
0	11929	8.588148177916	3
0	11942	8.596652177916	2
0	11942	8.596652177916	3
0	11955	8.605156177916	2
0	11955	8.605156177916	3
0	11972	8.613660177916	2
0	11972	8.613660177916	3
0	11985	8.622164177916	2
0	11985	8.622164177916	3
0	11998	8.630668177916	2
0	12009	8.640104220043	3
0	12020	8.648608220043	2
0	12020	8.648608220043	3
0	12032	8.657112220043	2
0	12043	8.659925473703	3
0	12054	8.668429473703	2
0	12054	8.668429473703	3
0	12074	8.676933473703	2
0	12074	8.676933473703	3
0	12095	8.685437473703	2
0	12095	8.685437473703	3
0	12120	8.693941473703	2
0	12120	8.693941473703	3
0	12133	8.702445473703	2
0	12133	8.702445473703	3
0	12146	8.710949473703	2
0	12146	8.710949473703	3
0	12163	8.719453473703	2
0	12163	8.719453473703	3
0	12176	8.727957473703	2
0	12176	8.727957473703	3
0	12197	8.736461473703	2
0	12197	8.736461473703	3
0	12210	8.744965473703	2
0	12210	8.744965473703	3
0	12223	8.753469473703	2
0	12223	8.753469473703	3
0	12236	8.761973473703	2
0	12246	8.763139158918	3
0	12253	8.771643158918	2
0	12264	8.773540051766	3
0	12275	8.782044051766	2
0	12275	8.782044051766	3
0	12287	8.790548051766	2
0	12298	8.793181947834	3
0	12309	8.801685947834	2
0	12309	8.801685947834	3
0	12329	8.810189947834	2
0	12329	8.810189947834	3
0	12346	8.818693947834	2
0	12346	8.818693947834	3
0	12367	8.827197947834	2
0	12367	8.827197947834	3
0	12380	8.835701947834	2
0	12380	8.835701947834	3
0	12397	8.844205947834	2
0	12397	8.844205947834	3
0	12414	8.852709947834	2
0	12414	8.852709947834	3
0	12431	8.861213947834	2
0	12431	8.861213947834	3
0	12448	8.869717947834	2
0	12448	8.869717947834	3
0	12461	8.878221947834	2
0	12461	8.878221947834	3
0	12478	8.886725947834	2
0	12478	8.886725947834	3
0	12495	8.895229947834	2
0	12495	8.895229947834	3
0	12516	8.903733947834	2
0	12516	8.903733947834	3
0	12529	8.912237947834	2
0	12529	8.912237947834	3
0	12546	8.920741947834	2
0	12546	8.920741947834	3
0	12559	8.929245947834	2
0	12571	8.962740194827	3
0	12577	8.971244194827	2
0	12587	8.973996292214	3
0	12598	8.982500292214	2
0	12598	8.982500292214	3
0	12610	8.991004292214	2
0	12621	8.998248904479	3
0	12628	9.006752904479	2
0	12639	9.019970236617	3
0	12649	9.028474236617	2
0	12649	9.028474236617	3
0	12665	9.036978236617	2
0	12665	9.036978236617	3
0	12678	9.045482236617	2
0	12690	9.065958642333	3
0	12696	9.074462642333	2
0	12706	9.08132819821	3
0	12725	9.08983219821	2
0	12725	9.08983219821	3
0	12737	9.09833619821	2
0	12737	9.09833619821	3
0	12750	9.10684019821	2
0	12750	9.10684019821	3
0	12763	9.11534419821	2
0	12775	9.135676225668	3
0	12781	9.144180225668	2
0	12791	9.145950219557	3
0	12798	9.154454219557	2
0	12808	9.158333267992	3
0	12819	9.166837267992	2
0	12819	9.166837267992	3
0	12831	9.175341267992	2
0	12842	9.17699382465	3
0	12849	9.18549782465	2
0	12859	9.187173026368	3
0	12866	9.195677026368	2
0	12876	9.205056015408	3
0	12883	9.213560015408	2
0	12894	9.232699297928	3
0	12904	9.241203297928	2
0	12904	9.241203297928	3
0	12916	9.249707297928	2
0	12928	9.266000692313	3
0	12938	9.274504692313	2
0	12938	9.274504692313	3
0	12954	9.283008692313	2
0	12954	9.283008692313	3
0	12971	9.291512692313	2
0	12971	9.291512692313	3
0	12988	9.300016692313	2
0	12988	9.300016692313	3
0	13001	9.308520692313	2
0	13012	9.310926089199	3
0	13019	9.319430089199	2
0	13029	9.327398777269	3
0	13036	9.335902777269	2
0	13046	9.342735812796	3
0	13057	9.351239812796	2
0	13057	9.351239812796	3
0	13077	9.359743812796	2
0	13077	9.359743812796	3
0	13094	9.368247812796	2
0	13094	9.368247812796	3
0	13111	9.376751812796	2
0	13111	9.376751812796	3
0	13124	9.385255812796	2
0	13124	9.385255812796	3
0	13137	9.393759812796	2
0	13149	9.416373197676	3
0	13163	9.424877197676	2
0	13163	9.424877197676	3
0	13175	9.433381197676	2
0	13175	9.433381197676	3
0	13192	9.441885197676	2
0	13192	9.441885197676	3
0	13205	9.450389197676	2
0	13217	9.481700507008	3
0	13223	9.490204507008	2
0	13233	9.499984550372	3
0	13248	9.508488550372	2
0	13248	9.508488550372	3
0	13264	9.516992550372	2
0	13264	9.516992550372	3
0	13277	9.525496550372	2
0	13277	9.525496550372	3
0	13290	9.534000550372	2
0	13300	9.535325978639	3
0	13311	9.543829978639	2
0	13311	9.543829978639	3
0	13328	9.552333978639	2
0	13328	9.552333978639	3
0	13341	9.560837978639	2
0	13353	9.578980078214	3
0	13359	9.587484078214	2
0	13369	9.59673497991	3
0	13376	9.60523897991	2
0	13386	9.608064674935	3
0	13397	9.616568674935	2
0	13397	9.616568674935	3
0	13409	9.625072674935	2
0	13421	9.640268783912	3
0	13427	9.648772783912	2
0	13437	9.653713092905	3
0	13456	9.662217092905	2
0	13456	9.662217092905	3
0	13468	9.670721092905	2
0	13468	9.670721092905	3
0	13481	9.679225092905	2
0	13481	9.679225092905	3
0	13494	9.687729092905	2
0	13504	9.688628186305	3
0	13511	9.697132186305	2
0	13522	9.702805051088	3
0	13529	9.711309051088	2
0	13539	9.717460413211	3
0	13546	9.725964413211	2
0	13556	9.728338428538	3
0	13563	9.736842428538	2
0	13573	9.737584876387	3
0	13583	9.746088876387	2
0	13583	9.746088876387	3
0	13596	9.754592876387	2
0	13606	9.755882542356	3
0	13613	9.764386542356	2
0	13624	9.768621182152	3
0	13635	9.777125182152	2
0	13635	9.777125182152	3
0	13647	9.785629182152	2
0	13658	9.787463551914	3
0	13673	9.795967551914	2
0	13673	9.795967551914	3
0	13693	9.804471551914	2
0	13693	9.804471551914	3
0	13710	9.812975551914	2
0	13710	9.812975551914	3
0	13727	9.821479551914	2
0	13727	9.821479551914	3
0	13744	9.829983551914	2
0	13744	9.829983551914	3
0	13761	9.838487551914	2
0	13761	9.838487551914	3
0	13774	9.846991551914	2
0	13774	9.846991551914	3
0	13799	9.855495551914	2
0	13799	9.855495551914	3
0	13820	9.863999551914	2
0	13820	9.863999551914	3
0	13841	9.872503551914	2
0	13841	9.872503551914	3
0	13858	9.881007551914	2
0	13858	9.881007551914	3
0	13871	9.889511551914	2
0	13871	9.889511551914	3
0	13892	9.898015551914	2
0	13892	9.898015551914	3
0	13909	9.906519551914	2
0	13909	9.906519551914	3
0	13926	9.915023551914	2
0	13926	9.915023551914	3
0	13939	9.923527551914	2
0	13939	9.923527551914	3
0	13956	9.932031551914	2
0	13956	9.932031551914	3
0	13969	9.940535551914	2
0	13969	9.940535551914	3
0	13982	9.949039551914	2
0	13982	9.949039551914	3
0	13999	9.957543551914	2
0	13999	9.957543551914	3
0	14028	9.966047551914	2
0	14028	9.966047551914	3
0	14045	9.974551551914	2
0	14045	9.974551551914	3
0	14058	9.983055551914	2
0	14058	9.983055551914	3
0	14079	9.991559551914	2
0	14079	9.991559551914	3
0	14096	10.000063551914	2
0	14096	10.000063551914	3
0	14109	10.008567551914	2
0	14109	10.008567551914	3
0	14126	10.017071551914	2
0	14126	10.017071551914	3
0	14139	10.025575551914	2
0	14139	10.025575551914	3
0	14156	10.034079551914	2
0	14156	10.034079551914	3
0	14173	10.042583551914	2
0	14173	10.042583551914	3
0	14190	10.051087551914	2
0	14190	10.051087551914	3
0	14203	10.059591551914	2
0	14203	10.059591551914	3
0	14216	10.068095551914	2
0	14216	10.068095551914	3
0	14229	10.076599551914	2
0	14229	10.076599551914	3
0	14246	10.085103551914	2
0	14246	10.085103551914	3
0	14263	10.093607551914	2
0	14263	10.093607551914	3
0	14280	10.102111551914	2
0	14280	10.102111551914	3
0	14297	10.110615551914	2
0	14297	10.110615551914	3
0	14314	10.119119551914	2
0	14314	10.119119551914	3
0	14327	10.127623551914	2
0	14339	10.157071354534	3
0	14345	10.165575354534	2
0	14356	10.181768448666	3
0	14366	10.190272448666	2
0	14366	10.190272448666	3
0	14386	10.198776448666	2
0	14386	10.198776448666	3
0	14399	10.207280448666	2
0	14399	10.207280448666	3
0	14412	10.215784448666	2
0	14423	10.224033411742	3
0	14430	10.232537411742	2
0	14441	10.246394043548	3
0	14447	10.254898043548	2
0	14457	10.254957377387	3
0	14467	10.263461377387	2
0	14467	10.263461377387	3
0	14488	10.271965377387	2
0	14488	10.271965377387	3
0	14501	10.280469377387	2
0	14501	10.280469377387	3
0	14518	10.288973377387	2
0	14518	10.288973377387	3
0	14531	10.297477377387	2
0	14541	10.297696463123	3
0	14552	10.306200463123	2
0	14552	10.306200463123	3
0	14569	10.314704463123	2
0	14569	10.314704463123	3
0	14590	10.323208463123	2
0	14590	10.323208463123	3
0	14607	10.331712463123	2
0	14607	10.331712463123	3
0	14624	10.340216463123	2
0	14624	10.340216463123	3
0	14637	10.348720463123	2
0	14637	10.348720463123	3
0	14654	10.357224463123	2
0	14654	10.357224463123	3
0	14671	10.365728463123	2
0	14671	10.365728463123	3
0	14688	10.374232463123	2
0	14688	10.374232463123	3
0	14701	10.382736463123	2
0	14711	10.383716966672	3
0	14718	10.392220966672	2
0	14730	10.403620087315	3
0	14740	10.412124087315	2
0	14740	10.412124087315	3
0	14752	10.420628087315	2
0	14763	10.42545803215	3
0	14778	10.43396203215	2
0	14778	10.43396203215	3
0	14790	10.44246603215	2
0	14790	10.44246603215	3
0	14803	10.45097003215	2
0	14815	10.479320877011	3
0	14829	10.487824877011	2
0	14829	10.487824877011	3
0	14845	10.496328877011	2
0	14845	10.496328877011	3
0	14866	10.504832877011	2
0	14866	10.504832877011	3
0	14879	10.513336877011	2
0	14879	10.513336877011	3
0	14896	10.521840877011	2
0	14896	10.521840877011	3
0	14913	10.530344877011	2
0	14913	10.530344877011	3
0	14926	10.538848877011	2
0	14926	10.538848877011	3
0	14939	10.547352877011	2
0	14951	10.567152470204	3
0	14957	10.575656470204	2
0	14968	10.592456479987	3
0	14974	10.600960479987	2
0	14985	10.664051308384	3
0	14999	10.672555308384	2
0	14999	10.672555308384	3
0	15015	10.681059308384	2
0	15015	10.681059308384	3
0	15040	10.689563308384	2
0	15040	10.689563308384	3
0	15057	10.698067308384	2
0	15057	10.698067308384	3
0	15070	10.706571308384	2
0	15070	10.706571308384	3
0	15083	10.715075308384	2
0	15083	10.715075308384	3
0	15096	10.723579308384	2
0	15096	10.723579308384	3
0	15113	10.732083308384	2
0	15113	10.732083308384	3
0	15126	10.740587308384	2
0	15137	10.743212377798	3
0	15148	10.751716377798	2
0	15148	10.751716377798	3
0	15160	10.760220377798	2
0	15172	10.774028219123	3
0	15178	10.782532219123	2
0	15188	10.788367356723	3
0	15199	10.796871356723	2
0	15199	10.796871356723	3
0	15215	10.805375356723	2
0	15215	10.805375356723	3
0	15236	10.813879356723	2
0	15236	10.813879356723	3
0	15249	10.822383356723	2
0	15249	10.822383356723	3
0	15266	10.830887356723	2
0	15266	10.830887356723	3
0	15279	10.839391356723	2
0	15291	10.861792680135	3
0	15297	10.870296680135	2
0	15307	10.874712583921	3
0	15314	10.883216583921	2
0	15324	10.890204136388	3
0	15335	10.898708136388	2
0	15335	10.898708136388	3
0	15347	10.907212136388	2
0	15358	10.908911253308	3
0	15369	10.917415253308	2
0	15369	10.917415253308	3
0	15389	10.925919253308	2
0	15389	10.925919253308	3
0	15402	10.934423253308	2
0	15402	10.934423253308	3
0	15419	10.942927253308	2
0	15419	10.942927253308	3
0	15436	10.951431253308	2
0	15436	10.951431253308	3
0	15453	10.959935253308	2
0	15453	10.959935253308	3
0	15466	10.968439253308	2
0	15478	11.008408963935	3
0	15484	11.016912963935	2
0	15494	11.01864965217	3
0	15501	11.02715365217	2
0	15512	11.053443636014	3
0	15518	11.061947636014	2
0	15528	11.063289246829	3
0	15534	11.071793246829	2
0	15545	11.073268962261	3
0	15559	11.081772962261	2
0	15559	11.081772962261	3
0	15576	11.090276962261	2
0	15576	11.090276962261	3
0	15589	11.098780962261	2
0	15589	11.098780962261	3
0	15610	11.107284962261	2
0	15610	11.107284962261	3
0	15623	11.115788962261	2
0	15623	11.115788962261	3
0	15636	11.124292962261	2
0	15648	11.145679406818	3
0	15654	11.154183406818	2
0	15664	11.161901569101	3
0	15675	11.170405569101	2
0	15675	11.170405569101	3
0	15691	11.178909569101	2
0	15691	11.178909569101	3
0	15708	11.187413569101	2
0	15708	11.187413569101	3
0	15721	11.195917569101	2
0	15732	11.198153830046	3
0	15739	11.206657830046	2
0	15749	11.208695775932	3
0	15756	11.217199775932	2
0	15766	11.225655013715	3
0	15777	11.234159013715	2
0	15777	11.234159013715	3
0	15789	11.242663013715	2
0	15801	11.261441840502	3
0	15807	11.269945840502	2
0	15818	11.320986233441	3
0	15828	11.329490233441	2
0	15828	11.329490233441	3
0	15844	11.337994233441	2
0	15844	11.337994233441	3
0	15857	11.346498233441	2
0	15868	11.355670041662	3
0	15883	11.364174041662	2
0	15883	11.364174041662	3
0	15895	11.372678041662	2
0	15895	11.372678041662	3
0	15912	11.381182041662	2
0	15912	11.381182041662	3
0	15925	11.389686041662	2
0	15937	11.425431793889	3
0	15947	11.433935793889	2
0	15947	11.433935793889	3
0	15963	11.442439793889	2
0	15963	11.442439793889	3
0	15980	11.450943793889	2
0	15980	11.450943793889	3
0	15993	11.459447793889	2
0	16004	11.464777039734	3
0	16011	11.473281039734	2
0	16021	11.479469636166	3
0	16032	11.487973636166	2
0	16032	11.487973636166	3
0	16044	11.496477636166	2
0	16056	11.528149210049	3
0	16062	11.536653210049	2
0	16073	11.554810176479	3
0	16079	11.563314176479	2
0	16089	11.56929503041	3
0	16100	11.57779903041	2
0	16100	11.57779903041	3
0	16116	11.58630303041	2
0	16116	11.58630303041	3
0	16133	11.59480703041	2
0	16133	11.59480703041	3
0	16146	11.60331103041	2
0	16157	11.609003138307	3
0	16164	11.617507138307	2
0	16174	11.620121581233	3
0	16185	11.628625581233	2
0	16185	11.628625581233	3
0	16201	11.637129581233	2
0	16201	11.637129581233	3
0	16214	11.645633581233	2
0	16225	11.648272311113	3
0	16236	11.656776311113	2
0	16236	11.656776311113	3
0	16248	11.665280311113	2
0	16260	11.679489179723	3
0	16270	11.687993179723	2
0	16270	11.687993179723	3
0	16282	11.696497179723	2
0	16294	11.721486545889	3
0	16304	11.729990545889	2
0	16304	11.729990545889	3
0	16324	11.738494545889	2
0	16324	11.738494545889	3
0	16337	11.746998545889	2
0	16337	11.746998545889	3
0	16350	11.755502545889	2
0	16361	11.762384843066	3
0	16372	11.770888843066	2
0	16372	11.770888843066	3
0	16384	11.779392843066	2
0	16396	11.809372729187	3
0	16406	11.817876729187	2
0	16406	11.817876729187	3
0	16422	11.826380729187	2
0	16422	11.826380729187	3
0	16435	11.834884729187	2
0	16446	11.840622103961	3
0	16461	11.849126103961	2
0	16461	11.849126103961	3
0	16473	11.857630103961	2
0	16473	11.857630103961	3
0	16486	11.866134103961	2
0	16497	11.870300430855	3
0	16504	11.878804430855	2
0	16515	11.889054649508	3
0	16521	11.897558649508	2
0	16531	11.897737750725	3
0	16545	11.906241750725	2
0	16545	11.906241750725	3
0	16562	11.914745750725	2
0	16562	11.914745750725	3
0	16575	11.923249750725	2
0	16575	11.923249750725	3
0	16592	11.931753750725	2
0	16592	11.931753750725	3
0	16609	11.940257750725	2
0	16609	11.940257750725	3
0	16626	11.948761750725	2
0	16626	11.948761750725	3
0	16643	11.957265750725	2
0	16643	11.957265750725	3
0	16660	11.965769750725	2
0	16660	11.965769750725	3
0	16677	11.974273750725	2
0	16677	11.974273750725	3
0	16702	11.982777750725	2
0	16702	11.982777750725	3
0	16715	11.991281750725	2
0	16715	11.991281750725	3
0	16728	11.999785750725	2
0	16728	11.999785750725	3
0	16745	12.008289750725	2
0	16745	12.008289750725	3
0	16762	12.016793750725	2
0	16762	12.016793750725	3
0	16787	12.025297750725	2
0	16787	12.025297750725	3
0	16804	12.033801750725	2
0	16804	12.033801750725	3
0	16821	12.042305750725	2
0	16821	12.042305750725	3
0	16834	12.050809750725	2
0	16834	12.050809750725	3
0	16847	12.059313750725	2
0	16847	12.059313750725	3
0	16864	12.067817750725	2
0	16864	12.067817750725	3
0	16877	12.076321750725	2
0	16889	12.096194680748	3
0	16899	12.104698680748	2
0	16899	12.104698680748	3
0	16911	12.113202680748	2
0	16923	12.133723677982	3
0	16929	12.142227677982	2
0	16939	12.143193743971	3
0	16945	12.151697743971	2
0	16956	12.153436124015	3
0	16975	12.161940124015	2
0	16975	12.161940124015	3
0	16995	12.170444124015	2
0	16995	12.170444124015	3
0	17012	12.178948124015	2
0	17012	12.178948124015	3
0	17025	12.187452124015	2
0	17025	12.187452124015	3
0	17038	12.195956124015	2
0	17038	12.195956124015	3
0	17055	12.204460124015	2
0	17055	12.204460124015	3
0	17068	12.212964124015	2
0	17068	12.212964124015	3
0	17089	12.221468124015	2
0	17089	12.221468124015	3
0	17102	12.229972124015	2
0	17102	12.229972124015	3
0	17123	12.238476124015	2
0	17123	12.238476124015	3
0	17136	12.246980124015	2
0	17136	12.246980124015	3
0	17149	12.255484124015	2
0	17161	12.308004137019	3
0	17167	12.316508137019	2
0	17177	12.326400213888	3
0	17188	12.334904213888	2
0	17188	12.334904213888	3
0	17204	12.343408213888	2
0	17204	12.343408213888	3
0	17217	12.351912213888	2
0	17228	12.353996554113	3
0	17235	12.362500554113	2
0	17246	12.375973029874	3
0	17260	12.384477029874	2
0	17260	12.384477029874	3
0	17272	12.392981029874	2
0	17272	12.392981029874	3
0	17285	12.401485029874	2
0	17297	12.412914462282	3
0	17303	12.421418462282	2
0	17313	12.426246142438	3
0	17320	12.434750142438	2
0	17331	12.45132342909	3
0	17345	12.45982742909	2
0	17345	12.45982742909	3
0	17369	12.46833142909	2
0	17369	12.46833142909	3
0	17382	12.47683542909	2
0	17382	12.47683542909	3
0	17403	12.48533942909	2
0	17403	12.48533942909	3
0	17424	12.49384342909	2
0	17424	12.49384342909	3
0	17437	12.50234742909	2
0	17437	12.50234742909	3
0	17450	12.51085142909	2
0	17450	12.51085142909	3
0	17463	12.51935542909	2
0	17463	12.51935542909	3
0	17480	12.52785942909	2
0	17480	12.52785942909	3
0	17497	12.53636342909	2
0	17497	12.53636342909	3
0	17510	12.54486742909	2
0	17510	12.54486742909	3
0	17523	12.55337142909	2
0	17534	12.555965637235	3
0	17545	12.564469637235	2
0	17545	12.564469637235	3
0	17565	12.572973637235	2
0	17565	12.572973637235	3
0	17582	12.581477637235	2
0	17582	12.581477637235	3
0	17607	12.589981637235	2
0	17607	12.589981637235	3
0	17624	12.598485637235	2
0	17624	12.598485637235	3
0	17645	12.606989637235	2
0	17645	12.606989637235	3
0	17666	12.615493637235	2
0	17666	12.615493637235	3
0	17679	12.623997637235	2
0	17679	12.623997637235	3
0	17692	12.632501637235	2
0	17692	12.632501637235	3
0	17709	12.641005637235	2
0	17709	12.641005637235	3
0	17726	12.649509637235	2
0	17726	12.649509637235	3
0	17743	12.658013637235	2
0	17743	12.658013637235	3
0	17764	12.666517637235	2
0	17764	12.666517637235	3
0	17777	12.675021637235	2
0	17777	12.675021637235	3
0	17790	12.683525637235	2
0	17790	12.683525637235	3
0	17803	12.692029637235	2
0	17803	12.692029637235	3
0	17824	12.700533637235	2
0	17824	12.700533637235	3
0	17845	12.709037637235	2
0	17845	12.709037637235	3
0	17862	12.717541637235	2
0	17862	12.717541637235	3
0	17879	12.726045637235	2
0	17879	12.726045637235	3
0	17892	12.734549637235	2
0	17892	12.734549637235	3
0	17909	12.743053637235	2
0	17909	12.743053637235	3
0	17926	12.751557637235	2
0	17926	12.751557637235	3
0	17939	12.760061637235	2
0	17939	12.760061637235	3
0	17960	12.768565637235	2
0	17960	12.768565637235	3
0	17973	12.777069637235	2
0	17973	12.777069637235	3
0	17986	12.785573637235	2
0	17986	12.785573637235	3
0	17999	12.794077637235	2
0	18009	12.794775316229	3
0	18016	12.803279316229	2
0	18027	12.807415343591	3
0	18034	12.815919343591	2
0	18044	12.819705440939	3
0	18055	12.828209440939	2
0	18055	12.828209440939	3
0	18067	12.836713440939	2
0	18079	12.848978560335	3
0	18093	12.857482560335	2
0	18093	12.857482560335	3
0	18105	12.865986560335	2
0	18105	12.865986560335	3
0	18118	12.874490560335	2
0	18129	12.878930665071	3
0	18144	12.887434665071	2
0	18144	12.887434665071	3
0	18156	12.895938665071	2
0	18156	12.895938665071	3
0	18173	12.904442665071	2
0	18173	12.904442665071	3
0	18186	12.912946665071	2
0	18196	12.913706775208	3
0	18203	12.922210775208	2
0	18214	12.929440040772	3
0	18225	12.937944040772	2
0	18225	12.937944040772	3
0	18241	12.946448040772	2
0	18241	12.946448040772	3
0	18262	12.954952040772	2
0	18262	12.954952040772	3
0	18275	12.963456040772	2
0	18275	12.963456040772	3
0	18288	12.971960040772	2
0	18300	13.024104442259	3
0	18306	13.032608442259	2
0	18316	13.037449028895	3
0	18323	13.045953028895	2
0	18334	13.063276215286	3
0	18344	13.071780215286	2
0	18344	13.071780215286	3
0	18356	13.080284215286	2
0	18368	13.100323880323	3
0	18382	13.108827880323	2
0	18382	13.108827880323	3
0	18394	13.117331880323	2
0	18394	13.117331880323	3
0	18411	13.125835880323	2
0	18411	13.125835880323	3
0	18424	13.134339880323	2
0	18436	13.167764258833	3
0	18454	13.176268258833	2
0	18454	13.176268258833	3
0	18470	13.184772258833	2
0	18470	13.184772258833	3
0	18483	13.193276258833	2
0	18483	13.193276258833	3
0	18500	13.201780258833	2
0	18500	13.201780258833	3
0	18513	13.210284258833	2
0	18513	13.210284258833	3
0	18526	13.218788258833	2
0	18538	13.235325972598	3
0	18552	13.243829972598	2
0	18552	13.243829972598	3
0	18568	13.252333972598	2
0	18568	13.252333972598	3
0	18581	13.260837972598	2
0	18581	13.260837972598	3
0	18602	13.269341972598	2
0	18602	13.269341972598	3
0	18615	13.277845972598	2
0	18615	13.277845972598	3
0	18628	13.286349972598	2
0	18639	13.292873656945	3
0	18646	13.301377656945	2
0	18656	13.310704933147	3
0	18663	13.319208933147	2
0	18674	13.336536166983	3
0	18680	13.345040166983	2
0	18691	13.378286497358	3
0	18697	13.386790497358	2
0	18707	13.388510635087	3
0	18718	13.397014635087	2
0	18718	13.397014635087	3
0	18734	13.405518635087	2
0	18734	13.405518635087	3
0	18747	13.414022635087	2
0	18759	13.430937717738	3
0	18773	13.439441717738	2
0	18773	13.439441717738	3
0	18785	13.447945717738	2
0	18785	13.447945717738	3
0	18802	13.456449717738	2
0	18802	13.456449717738	3
0	18815	13.464953717738	2
0	18826	13.466797567009	3
0	18837	13.475301567009	2
0	18837	13.475301567009	3
0	18849	13.483805567009	2
0	18861	13.513378555067	3
0	18875	13.521882555067	2
0	18875	13.521882555067	3
0	18891	13.530386555067	2
0	18891	13.530386555067	3
0	18904	13.538890555067	2
0	18904	13.538890555067	3
0	18917	13.547394555067	2
0	18929	13.575598842948	3
0	18935	13.584102842948	2
0	18945	13.588851165825	3
0	18964	13.597355165825	2
0	18964	13.597355165825	3
0	18980	13.605859165825	2
0	18980	13.605859165825	3
0	18993	13.614363165825	2
0	18993	13.614363165825	3
0	19010	13.622867165825	2
0	19010	13.622867165825	3
0	19027	13.631371165825	2
0	19027	13.631371165825	3
0	19044	13.639875165825	2
0	19044	13.639875165825	3
0	19057	13.648379165825	2
0	19057	13.648379165825	3
0	19074	13.656883165825	2
0	19074	13.656883165825	3
0	19091	13.665387165825	2
0	19091	13.665387165825	3
0	19112	13.673891165825	2
0	19112	13.673891165825	3
0	19125	13.682395165825	2
0	19125	13.682395165825	3
0	19138	13.690899165825	2
0	19149	13.698409916348	3
0	19156	13.706913916348	2
0	19166	13.708679652191	3
0	19181	13.717183652191	2
0	19181	13.717183652191	3
0	19197	13.725687652191	2
0	19197	13.725687652191	3
0	19218	13.734191652191	2
0	19218	13.734191652191	3
0	19231	13.742695652191	2
0	19231	13.742695652191	3
0	19244	13.751199652191	2
0	19244	13.751199652191	3
0	19257	13.759703652191	2
0	19268	13.764078053733	3
0	19275	13.772582053733	2
0	19286	13.782633027856	3
0	19296	13.791137027856	2
0	19296	13.791137027856	3
0	19316	13.799641027856	2
0	19316	13.799641027856	3
0	19341	13.808145027856	2
0	19341	13.808145027856	3
0	19354	13.816649027856	2
0	19354	13.816649027856	3
0	19371	13.825153027856	2
0	19371	13.825153027856	3
0	19384	13.833657027856	2
0	19384	13.833657027856	3
0	19401	13.842161027856	2
0	19401	13.842161027856	3
0	19422	13.850665027856	2
0	19422	13.850665027856	3
0	19439	13.859169027856	2
0	19439	13.859169027856	3
0	19456	13.867673027856	2
0	19456	13.867673027856	3
0	19469	13.876177027856	2
0	19469	13.876177027856	3
0	19482	13.884681027856	2
0	19482	13.884681027856	3
0	19495	13.893185027856	2
0	19506	13.896036596793	3
0	19513	13.904540596793	2
0	19524	13.914688096226	3
0	19530	13.923192096226	2
0	19541	13.967523068917	3
0	19547	13.976027068917	2
0	19558	13.993726096314	3
0	19572	14.002230096314	2
0	19572	14.002230096314	3
0	19584	14.010734096314	2
0	19584	14.010734096314	3
0	19597	14.019238096314	2
0	19608	14.021952863169	3
0	19619	14.030456863169	2
0	19619	14.030456863169	3
0	19635	14.038960863169	2
0	19635	14.038960863169	3
0	19660	14.047464863169	2
0	19660	14.047464863169	3
0	19673	14.055968863169	2
0	19673	14.055968863169	3
0	19690	14.064472863169	2
0	19690	14.064472863169	3
0	19703	14.072976863169	2
0	19703	14.072976863169	3
0	19720	14.081480863169	2
0	19720	14.081480863169	3
0	19741	14.089984863169	2
0	19741	14.089984863169	3
0	19758	14.098488863169	2
0	19758	14.098488863169	3
0	19775	14.106992863169	2
0	19775	14.106992863169	3
0	19792	14.115496863169	2
0	19792	14.115496863169	3
0	19805	14.124000863169	2
0	19805	14.124000863169	3
0	19822	14.132504863169	2
0	19822	14.132504863169	3
0	19835	14.141008863169	2
0	19845	14.141866727039	3
0	19852	14.150370727039	2
0	19864	14.1741397597	3
0	19870	14.1826437597	2
0	19880	14.185186765577	3
0	19887	14.193690765577	2
0	19897	14.196039035099	3
0	19904	14.204543035099	2
0	19914	14.21206557671	3
0	19921	14.22056957671	2
0	19931	14.227591633989	3
0	19942	14.236095633989	2
0	19942	14.236095633989	3
0	19954	14.244599633989	2
0	19965	14.250669497866	3
0	19972	14.259173497866	2
0	19983	14.278845478697	3
0	19989	14.287349478697	2
0	19999	14.296982803791	3
0	20006	14.305486803791	2
0	20017	14.319698981793	3
0	20023	14.328202981793	2
0	20034	14.34236257727	3
0	20044	14.35086657727	2
0	20044	14.35086657727	3
0	20056	14.35937057727	2
0	20067	14.366833811527	3
0	20074	14.375337811527	2
0	20084	14.382065811524	3
0	20095	14.390569811524	2
0	20095	14.390569811524	3
0	20107	14.399073811524	2
0	20117	14.400228754821	3
0	20124	14.408732754821	2
0	20135	14.413649290182	3
0	20142	14.422153290182	2
0	20153	14.433104729414	3
0	20163	14.441608729414	2
0	20163	14.441608729414	3
0	20179	14.450112729414	2
0	20179	14.450112729414	3
0	20192	14.458616729414	2
0	20202	14.459017513483	3
0	20209	14.467521513483	2
0	20220	14.469353838481	3
0	20227	14.477857838481	2
0	20237	14.487381191376	3
0	20252	14.495885191376	2
0	20252	14.495885191376	3
0	20264	14.504389191376	2
0	20264	14.504389191376	3
0	20281	14.512893191376	2
0	20281	14.512893191376	3
0	20298	14.521397191376	2
0	20298	14.521397191376	3
0	20315	14.529901191376	2
0	20315	14.529901191376	3
0	20332	14.538405191376	2
0	20332	14.538405191376	3
0	20349	14.546909191376	2
0	20349	14.546909191376	3
0	20366	14.555413191376	2
0	20366	14.555413191376	3
0	20383	14.563917191376	2
0	20383	14.563917191376	3
0	20396	14.572421191376	2
0	20407	14.581617354333	3
0	20414	14.590121354333	2
0	20424	14.594120213059	3
0	20439	14.602624213059	2
0	20439	14.602624213059	3
0	20451	14.611128213059	2
0	20451	14.611128213059	3
0	20464	14.619632213059	2
0	20475	14.6281058287	3
0	20490	14.6366098287	2
0	20490	14.6366098287	3
0	20502	14.6451138287	2
0	20502	14.6451138287	3
0	20523	14.6536178287	2
0	20523	14.6536178287	3
0	20536	14.6621218287	2
0	20536	14.6621218287	3
0	20549	14.6706258287	2
0	20560	14.674655726617	3
0	20567	14.683159726617	2
0	20578	14.702062177939	3
0	20588	14.710566177939	2
0	20588	14.710566177939	3
0	20600	14.719070177939	2
0	20612	14.738933905411	3
0	20618	14.747437905411	2
0	20628	14.747603889435	3
0	20638	14.756107889435	2
0	20638	14.756107889435	3
0	20659	14.764611889435	2
0	20659	14.764611889435	3
0	20672	14.773115889435	2
0	20672	14.773115889435	3
0	20685	14.781619889435	2
0	20697	14.812940038262	3
0	20707	14.821444038262	2
0	20707	14.821444038262	3
0	20727	14.829948038262	2
0	20727	14.829948038262	3
0	20740	14.838452038262	2
0	20740	14.838452038262	3
0	20753	14.846956038262	2
0	20764	14.849968206362	3
0	20775	14.858472206362	2
0	20775	14.858472206362	3
0	20787	14.866976206362	2
0	20797	14.868128333792	3
0	20812	14.876632333792	2
0	20812	14.876632333792	3
0	20825	14.885136333792	2
0	20825	14.885136333792	3
0	20842	14.893640333792	2
0	20842	14.893640333792	3
0	20863	14.902144333792	2
0	20863	14.902144333792	3
0	20880	14.910648333792	2
0	20880	14.910648333792	3
0	20897	14.919152333792	2
0	20897	14.919152333792	3
0	20914	14.927656333792	2
0	20914	14.927656333792	3
0	20931	14.936160333792	2
0	20931	14.936160333792	3
0	20948	14.944664333792	2
0	20948	14.944664333792	3
0	20961	14.953168333792	2
0	20961	14.953168333792	3
0	20978	14.961672333792	2
0	20978	14.961672333792	3
0	20999	14.970176333792	2
0	20999	14.970176333792	3
0	21020	14.978680333792	2
0	21020	14.978680333792	3
0	21033	14.987184333792	2
0	21033	14.987184333792	3
0	21046	14.995688333792	2
0	21046	14.995688333792	3
0	21059	15.004192333792	2
0	21071	15.023817464354	3
0	21089	15.032321464354	2
0	21089	15.032321464354	3
0	21101	15.040825464354	2
0	21101	15.040825464354	3
0	21114	15.049329464354	2
0	21114	15.049329464354	3
0	21127	15.057833464354	2
0	21138	15.066604735472	3
0	21149	15.075108735472	2
0	21149	15.075108735472	3
0	21161	15.083612735472	2
0	21173	15.128513394702	3
0	21179	15.137017394702	2
0	21189	15.145134604979	3
0	21200	15.153638604979	2
0	21200	15.153638604979	3
0	21212	15.162142604979	2
0	21223	15.164601668681	3
0	21230	15.173105668681	2
0	21241	15.193329318301	3
0	21247	15.201833318301	2
0	21257	15.209299183953	3
0	21276	15.217803183953	2
0	21276	15.217803183953	3
0	21288	15.226307183953	2
0	21288	15.226307183953	3
0	21301	15.234811183953	2
0	21301	15.234811183953	3
0	21314	15.243315183953	2
0	21326	15.276833339267	3
0	21336	15.285337339267	2
0	21336	15.285337339267	3
0	21348	15.293841339267	2
0	21360	15.353152445845	3
0	21366	15.361656445845	2
0	21376	15.366048994522	3
0	21383	15.374552994522	2
0	21394	15.398033777751	3
0	21400	15.406537777751	2
0	21410	15.41040810792	3
0	21425	15.41891210792	2
0	21425	15.41891210792	3
0	21437	15.42741610792	2
0	21437	15.42741610792	3
0	21450	15.43592010792	2
0	21462	15.44633999051	3
0	21468	15.45484399051	2
0	21479	15.476967000953	3
0	21485	15.485471000953	2
0	21495	15.48915504086	3
0	21514	15.49765904086	2
0	21514	15.49765904086	3
0	21526	15.50616304086	2
0	21526	15.50616304086	3
0	21547	15.51466704086	2
0	21547	15.51466704086	3
0	21564	15.52317104086	2
0	21564	15.52317104086	3
0	21585	15.53167504086	2
0	21585	15.53167504086	3
0	21606	15.54017904086	2
0	21606	15.54017904086	3
0	21619	15.54868304086	2
0	21619	15.54868304086	3
0	21632	15.55718704086	2
0	21632	15.55718704086	3
0	21649	15.56569104086	2
0	21649	15.56569104086	3
0	21666	15.57419504086	2
0	21666	15.57419504086	3
0	21687	15.58269904086	2
0	21687	15.58269904086	3
0	21700	15.59120304086	2
0	21700	15.59120304086	3
0	21713	15.59970704086	2
0	21713	15.59970704086	3
0	21726	15.60821104086	2
0	21726	15.60821104086	3
0	21743	15.61671504086	2
0	21743	15.61671504086	3
0	21764	15.62521904086	2
0	21764	15.62521904086	3
0	21781	15.63372304086	2
0	21781	15.63372304086	3
0	21802	15.64222704086	2
0	21802	15.64222704086	3
0	21819	15.65073104086	2
0	21819	15.65073104086	3
0	21832	15.65923504086	2
0	21832	15.65923504086	3
0	21845	15.66773904086	2
0	21845	15.66773904086	3
0	21862	15.67624304086	2
0	21862	15.67624304086	3
0	21879	15.68474704086	2
0	21879	15.68474704086	3
0	21896	15.69325104086	2
0	21896	15.69325104086	3
0	21909	15.70175504086	2
0	21921	15.722856475427	3
0	21927	15.731360475427	2
0	21938	15.743674580404	3
0	21944	15.752178580404	2
0	21955	15.774143325726	3
0	21965	15.782647325726	2
0	21965	15.782647325726	3
0	21977	15.791151325726	2
0	21987	15.791442405435	3
0	21994	15.799946405435	2
0	22006	15.836585979745	3
0	22016	15.845089979745	2
0	22016	15.845089979745	3
0	22028	15.853593979745	2
0	22038	15.854694619457	3
0	22049	15.863198619457	2
0	22049	15.863198619457	3
0	22070	15.871702619457	2
0	22070	15.871702619457	3
0	22083	15.880206619457	2
0	22083	15.880206619457	3
0	22100	15.888710619457	2
0	22100	15.888710619457	3
0	22121	15.897214619457	2
0	22121	15.897214619457	3
0	22134	15.905718619457	2
0	22134	15.905718619457	3
0	22151	15.914222619457	2
0	22151	15.914222619457	3
0	22168	15.922726619457	2
0	22168	15.922726619457	3
0	22185	15.931230619457	2
0	22185	15.931230619457	3
0	22210	15.939734619457	2
0	22210	15.939734619457	3
0	22223	15.948238619457	2
0	22223	15.948238619457	3
0	22240	15.956742619457	2
0	22240	15.956742619457	3
0	22253	15.965246619457	2
0	22253	15.965246619457	3
0	22266	15.973750619457	2
0	22276	15.974032567667	3
0	22283	15.982536567667	2
0	22293	15.983623669393	3
0	22300	15.992127669393	2
0	22311	15.992743465346	3
0	22325	16.001247465346	2
0	22325	16.001247465346	3
0	22338	16.009751465346	2
0	22338	16.009751465346	3
0	22351	16.018255465346	2
0	22363	16.048710995808	3
0	22369	16.057214995808	2
0	22380	16.0731796298	3
0	22390	16.0816836298	2
0	22390	16.0816836298	3
0	22406	16.0901876298	2
0	22406	16.0901876298	3
0	22423	16.0986916298	2
0	22423	16.0986916298	3
0	22440	16.1071956298	2
0	22440	16.1071956298	3
0	22461	16.1156996298	2
0	22461	16.1156996298	3
0	22474	16.1242036298	2
0	22474	16.1242036298	3
0	22491	16.1327076298	2
0	22491	16.1327076298	3
0	22512	16.1412116298	2
0	22512	16.1412116298	3
0	22537	16.1497156298	2
0	22537	16.1497156298	3
0	22550	16.1582196298	2
0	22550	16.1582196298	3
0	22567	16.1667236298	2
0	22567	16.1667236298	3
0	22584	16.1752276298	2
0	22584	16.1752276298	3
0	22597	16.1837316298	2
0	22597	16.1837316298	3
0	22610	16.1922356298	2
0	22610	16.1922356298	3
0	22627	16.2007396298	2
0	22627	16.2007396298	3
0	22644	16.2092436298	2
0	22644	16.2092436298	3
0	22673	16.2177476298	2
0	22673	16.2177476298	3
0	22690	16.2262516298	2
0	22690	16.2262516298	3
0	22703	16.2347556298	2
0	22703	16.2347556298	3
0	22720	16.2432596298	2
0	22720	16.2432596298	3
0	22737	16.2517636298	2
0	22737	16.2517636298	3
0	22762	16.2602676298	2
0	22762	16.2602676298	3
0	22775	16.2687716298	2
0	22775	16.2687716298	3
0	22788	16.2772756298	2
0	22788	16.2772756298	3
0	22805	16.2857796298	2
0	22805	16.2857796298	3
0	22822	16.2942836298	2
0	22822	16.2942836298	3
0	22835	16.3027876298	2
0	22835	16.3027876298	3
0	22852	16.3112916298	2
0	22852	16.3112916298	3
0	22869	16.3197956298	2
0	22869	16.3197956298	3
0	22886	16.3282996298	2
0	22886	16.3282996298	3
0	22903	16.3368036298	2
0	22903	16.3368036298	3
0	22916	16.3453076298	2
0	22916	16.3453076298	3
0	22941	16.3538116298	2
0	22941	16.3538116298	3
0	22954	16.3623156298	2
0	22954	16.3623156298	3
0	22971	16.3708196298	2
0	22971	16.3708196298	3
0	22988	16.3793236298	2
0	22988	16.3793236298	3
0	23001	16.3878276298	2
0	23001	16.3878276298	3
0	23014	16.3963316298	2
0	23026	16.411254735708	3
0	23032	16.419758735708	2
0	23042	16.426218947312	3
0	23049	16.434722947312	2
0	23059	16.435126857204	3
0	23065	16.443630857204	2
0	23077	16.461197967849	3
0	23083	16.469701967849	2
0	23094	16.485080210416	3
0	23100	16.493584210416	2
0	23110	16.503002856139	3
0	23117	16.511506856139	2
0	23128	16.522154772407	3
0	23134	16.530658772407	2
0	23144	16.540405882803	3
0	23151	16.548909882803	2
0	23161	16.550525322972	3
0	23168	16.559029322972	2
0	23178	16.566098178289	3
0	23189	16.574602178289	2
0	23189	16.574602178289	3
0	23201	16.583106178289	2
0	23212	16.592876180573	3
0	23219	16.601380180573	2
0	23229	16.609205160788	3
0	23236	16.617709160788	2
0	23247	16.633350286714	3
0	23253	16.641854286714	2
0	23264	16.664838622339	3
0	23278	16.673342622339	2
0	23278	16.673342622339	3
0	23290	16.681846622339	2
0	23290	16.681846622339	3
0	23303	16.690350622339	2
0	23315	16.702749215469	3
0	23329	16.711253215469	2
0	23329	16.711253215469	3
0	23349	16.719757215469	2
0	23349	16.719757215469	3
0	23366	16.728261215469	2
0	23366	16.728261215469	3
0	23383	16.736765215469	2
0	23383	16.736765215469	3
0	23396	16.745269215469	2
0	23396	16.745269215469	3
0	23413	16.753773215469	2
0	23413	16.753773215469	3
0	23430	16.762277215469	2
0	23430	16.762277215469	3
0	23447	16.770781215469	2
0	23447	16.770781215469	3
0	23460	16.779285215469	2
0	23460	16.779285215469	3
0	23477	16.787789215469	2
0	23477	16.787789215469	3
0	23498	16.796293215469	2
0	23498	16.796293215469	3
0	23511	16.804797215469	2
0	23511	16.804797215469	3
0	23528	16.813301215469	2
0	23528	16.813301215469	3
0	23545	16.821805215469	2
0	23545	16.821805215469	3
0	23558	16.830309215469	2
0	23570	16.843551649687	3
0	23576	16.852055649687	2
0	23586	16.855886153284	3
0	23593	16.864390153284	2
0	23603	16.873206561788	3
0	23618	16.881710561788	2
0	23618	16.881710561788	3
0	23630	16.890214561788	2
0	23630	16.890214561788	3
0	23651	16.898718561788	2
0	23651	16.898718561788	3
0	23668	16.907222561788	2
0	23668	16.907222561788	3
0	23681	16.915726561788	2
0	23681	16.915726561788	3
0	23694	16.924230561788	2
0	23705	16.926784055997	3
0	23716	16.935288055997	2
0	23716	16.935288055997	3
0	23728	16.943792055997	2
0	23739	16.946031440817	3
0	23746	16.954535440817	2
0	23757	16.977001911282	3
0	23767	16.985505911282	2
0	23767	16.985505911282	3
0	23787	16.994009911282	2
0	23787	16.994009911282	3
0	23808	17.002513911282	2
0	23808	17.002513911282	3
0	23821	17.011017911282	2
0	23821	17.011017911282	3
0	23834	17.019521911282	2
0	23834	17.019521911282	3
0	23847	17.028025911282	2
0	23858	17.036762908929	3
0	23873	17.045266908929	2
0	23873	17.045266908929	3
0	23885	17.053770908929	2
0	23885	17.053770908929	3
0	23898	17.062274908929	2
0	23908	17.062517098618	3
0	23915	17.071021098618	2
0	23925	17.071534552362	3
0	23932	17.080038552362	2
0	23944	17.096296480455	3
0	23950	17.104800480455	2
0	23961	17.202265676118	3
0	23975	17.210769676118	2
0	23975	17.210769676118	3
0	23987	17.219273676118	2
0	23987	17.219273676118	3
0	24000	17.227777676118	2
0	24012	17.239521040878	3
0	24026	17.248025040878	2
0	24026	17.248025040878	3
0	24038	17.256529040878	2
0	24038	17.256529040878	3
0	24051	17.265033040878	2
0	24062	17.266545569619	3
0	24073	17.275049569619	2
0	24073	17.275049569619	3
0	24085	17.283553569619	2
0	24097	17.306654627419	3
0	24103	17.315158627419	2
0	24113	17.323793987188	3
0	24128	17.332297987188	2
0	24128	17.332297987188	3
0	24140	17.340801987188	2
0	24140	17.340801987188	3
0	24157	17.349305987188	2
0	24157	17.349305987188	3
0	24174	17.357809987188	2
0	24174	17.357809987188	3
0	24191	17.366313987188	2
0	24191	17.366313987188	3
0	24208	17.374817987188	2
0	24208	17.374817987188	3
0	24225	17.383321987188	2
0	24225	17.383321987188	3
0	24238	17.391825987188	2
0	24250	17.417427756532	3
0	24260	17.425931756532	2
0	24260	17.425931756532	3
[...]
22	20666	14.764612561755	1051
22	20679	14.773116561755	1051
22	20689	14.781620561755	1051
22	20714	14.821444710582	1051
22	20734	14.829948710582	1051
22	20747	14.838452710582	1051
22	20757	14.846956710582	1051
22	20782	14.858472878682	1051
22	20791	14.866976878682	1051
22	20819	14.876633006112	1051
22	20832	14.885137006112	1051
22	20849	14.893641006112	1051
22	20870	14.902145006112	1051
22	20887	14.910649006112	1051
22	20904	14.919153006112	1051
22	20921	14.927657006112	1051
22	20938	14.936161006112	1051
22	20955	14.944665006112	1051
22	20968	14.953169006112	1051
22	20985	14.961673006112	1051
22	21006	14.970177006112	1051
22	21027	14.978681006112	1051
22	21040	14.987185006112	1051
22	21053	14.995689006112	1051
22	21063	15.004193006112	1051
22	21096	15.032322136674	1051
22	21108	15.040826136674	1051
22	21121	15.049330136674	1051
22	21131	15.057834136674	1051
22	21156	15.075109407792	1051
22	21165	15.083613407792	1051
22	21183	15.137018067022	1051
22	21207	15.153639277299	1051
22	21216	15.162143277299	1051
22	21234	15.173106341001	1051
22	21251	15.201833990621	1051
22	21283	15.217803856273	1051
22	21295	15.226307856273	1051
22	21308	15.234811856273	1051
22	21318	15.243315856273	1051
22	21343	15.285338011587	1051
22	21352	15.293842011587	1051
22	21370	15.361657118165	1051
22	21387	15.374553666842	1051
22	21404	15.406538450071	1051
22	21432	15.41891278024	1051
22	21444	15.42741678024	1051
22	21454	15.43592078024	1051
22	21472	15.45484466283	1051
22	21489	15.485471673273	1051
22	21521	15.49765971318	1051
22	21533	15.50616371318	1051
22	21554	15.51466771318	1051
22	21571	15.52317171318	1051
22	21592	15.53167571318	1051
22	21613	15.54017971318	1051
22	21626	15.54868371318	1051
22	21639	15.55718771318	1051
22	21656	15.56569171318	1051
22	21673	15.57419571318	1051
22	21694	15.58269971318	1051
22	21707	15.59120371318	1051
22	21720	15.59970771318	1051
22	21733	15.60821171318	1051
22	21750	15.61671571318	1051
22	21771	15.62521971318	1051
22	21788	15.63372371318	1051
22	21809	15.64222771318	1051
22	21826	15.65073171318	1051
22	21839	15.65923571318	1051
22	21852	15.66773971318	1051
22	21869	15.67624371318	1051
22	21886	15.68474771318	1051
22	21903	15.69325171318	1051
22	21913	15.70175571318	1051
22	21931	15.731361147747	1051
22	21948	15.752179252724	1051
22	21972	15.782647998046	1051
22	21981	15.791151998046	1051
22	21998	15.799947077755	1051
22	22023	15.845090652065	1051
22	22032	15.853594652065	1051
22	22056	15.863199291777	1051
22	22077	15.871703291777	1051
22	22090	15.880207291777	1051
22	22107	15.888711291777	1051
22	22128	15.897215291777	1051
22	22141	15.905719291777	1051
22	22158	15.914223291777	1051
22	22175	15.922727291777	1051
22	22192	15.931231291777	1051
22	22217	15.939735291777	1051
22	22230	15.948239291777	1051
22	22247	15.956743291777	1051
22	22260	15.965247291777	1051
22	22270	15.973751291777	1051
22	22287	15.982537239987	1051
22	22304	15.992128341713	1051
22	22332	16.001248137666	1051
22	22345	16.009752137666	1051
22	22355	16.018256137666	1051
22	22373	16.057215668128	1051
22	22397	16.08168430212	1051
22	22413	16.09018830212	1051
22	22430	16.09869230212	1051
22	22447	16.10719630212	1051
22	22468	16.11570030212	1051
22	22481	16.12420430212	1051
22	22498	16.13270830212	1051
22	22519	16.14121230212	1051
22	22544	16.14971630212	1051
22	22557	16.15822030212	1051
22	22574	16.16672430212	1051
22	22591	16.17522830212	1051
22	22604	16.18373230212	1051
22	22617	16.19223630212	1051
22	22634	16.20074030212	1051
22	22651	16.20924430212	1051
22	22680	16.21774830212	1051
22	22697	16.22625230212	1051
22	22710	16.23475630212	1051
22	22727	16.24326030212	1051
22	22744	16.25176430212	1051
22	22769	16.26026830212	1051
22	22782	16.26877230212	1051
22	22795	16.27727630212	1051
22	22812	16.28578030212	1051
22	22829	16.29428430212	1051
22	22842	16.30278830212	1051
22	22859	16.31129230212	1051
22	22876	16.31979630212	1051
22	22893	16.32830030212	1051
22	22910	16.33680430212	1051
22	22923	16.34530830212	1051
22	22948	16.35381230212	1051
22	22961	16.36231630212	1051
22	22978	16.37082030212	1051
22	22995	16.37932430212	1051
22	23008	16.38782830212	1051
22	23018	16.39633230212	1051
22	23036	16.419759408028	1051
22	23053	16.434723619632	1051
22	23069	16.443631529524	1051
22	23087	16.469702640169	1051
22	23104	16.493584882736	1051
22	23121	16.511507528459	1051
22	23138	16.530659444727	1051
22	23155	16.548910555123	1051
22	23172	16.559029995292	1051
22	23196	16.574602850609	1051
22	23205	16.583106850609	1051
22	23223	16.601380852893	1051
22	23240	16.617709833108	1051
22	23257	16.641854959034	1051
22	23285	16.673343294659	1051
22	23297	16.681847294659	1051
22	23307	16.690351294659	1051
22	23336	16.711253887789	1051
22	23356	16.719757887789	1051
22	23373	16.728261887789	1051
22	23390	16.736765887789	1051
22	23403	16.745269887789	1051
22	23420	16.753773887789	1051
22	23437	16.762277887789	1051
22	23454	16.770781887789	1051
22	23467	16.779285887789	1051
22	23484	16.787789887789	1051
22	23505	16.796293887789	1051
22	23518	16.804797887789	1051
22	23535	16.813301887789	1051
22	23552	16.821805887789	1051
22	23562	16.830309887789	1051
22	23580	16.852056322007	1051
22	23597	16.864390825604	1051
22	23625	16.881711234108	1051
22	23637	16.890215234108	1051
22	23658	16.898719234108	1051
22	23675	16.907223234108	1051
22	23688	16.915727234108	1051
22	23698	16.924231234108	1051
22	23723	16.935288728317	1051
22	23732	16.943792728317	1051
22	23750	16.954536113137	1051
22	23774	16.985506583602	1051
22	23794	16.994010583602	1051
22	23815	17.002514583602	1051
22	23828	17.011018583602	1051
22	23841	17.019522583602	1051
22	23851	17.028026583602	1051
22	23880	17.045267581249	1051
22	23892	17.053771581249	1051
22	23902	17.062275581249	1051
22	23919	17.071021770938	1051
22	23936	17.080039224682	1051
22	23954	17.104801152775	1051
22	23982	17.210770348438	1051
22	23994	17.219274348438	1051
22	24004	17.227778348438	1051
22	24033	17.248025713198	1051
22	24045	17.256529713198	1051
22	24055	17.265033713198	1051
22	24080	17.275050241939	1051
22	24089	17.283554241939	1051
22	24107	17.315159299739	1051
22	24135	17.332298659508	1051
22	24147	17.340802659508	1051
22	24164	17.349306659508	1051
22	24181	17.357810659508	1051
22	24198	17.366314659508	1051
22	24215	17.374818659508	1051
22	24232	17.383322659508	1051
22	24242	17.391826659508	1051
22	24267	17.425932428852	1051
22	24283	17.434436428852	1051
22	24293	17.442940428852	1051
22	24322	17.470601966857	1051
22	24334	17.479105966857	1051
22	24344	17.487609966857	1051
22	24369	17.509594503124	1051
22	24378	17.518098503124	1051
22	24407	17.532926372111	1051
22	24423	17.541430372111	1051
22	24444	17.549934372111	1051
22	24457	17.558438372111	1051
22	24478	17.566942372111	1051
22	24495	17.575446372111	1051
22	24508	17.583950372111	1051
22	24533	17.592454372111	1051
22	24554	17.600958372111	1051
22	24567	17.609462372111	1051
22	24580	17.617966372111	1051
22	24597	17.626470372111	1051
22	24610	17.634974372111	1051
22	24623	17.643478372111	1051
22	24633	17.651982372111	1051
22	24662	17.666338086408	1051
22	24686	17.674842086408	1051
22	24699	17.683346086408	1051
22	24712	17.691850086408	1051
22	24729	17.700354086408	1051
22	24742	17.708858086408	1051
22	24759	17.717362086408	1051
22	24776	17.725866086408	1051
22	24793	17.734370086408	1051
22	24803	17.742874086408	1051
22	24821	17.782401245044	1051
22	24838	17.800877670762	1051
22	24855	17.817464009146	1051
22	24879	17.828690429159	1051
22	24895	17.837194429159	1051
22	24920	17.845698429159	1051
22	24941	17.854202429159	1051
22	24966	17.862706429159	1051
22	24979	17.871210429159	1051
22	25000	17.879714429159	1051
22	25013	17.888218429159	1051
22	25030	17.896722429159	1051
22	25047	17.905226429159	1051
22	25064	17.913730429159	1051
22	25081	17.922234429159	1051
22	25098	17.930738429159	1051
22	25111	17.939242429159	1051
22	25124	17.947746429159	1051
22	25137	17.956250429159	1051
22	25150	17.964754429159	1051
22	25167	17.973258429159	1051
22	25184	17.981762429159	1051
22	25201	17.990266429159	1051
22	25211	17.998770429159	1051
22	25229	18.049768646792	1051
22	25253	18.081011853879	1051
22	25262	18.089515853879	1051
22	25287	18.09975803953	1051
22	25296	18.10826203953	1051
22	25321	18.122721620279	1051
22	25330	18.131225620279	1051
22	25355	18.167719376888	1051
22	25371	18.176223376888	1051
22	25392	18.184727376888	1051
22	25409	18.193231376888	1051
22	25422	18.201735376888	1051
22	25432	18.210239376888	1051
22	25461	18.240245577778	1051
22	25473	18.248749577778	1051
22	25490	18.257253577778	1051
22	25500	18.265757577778	1051
22	25525	18.281772088662	1051
22	25534	18.290276088662	1051
22	25552	18.328663115772	1051
22	25569	18.340520324949	1051
22	25586	18.351248741931	1051
22	25618	18.372721813932	1051
22	25638	18.381225813932	1051
22	25651	18.389729813932	1051
22	25664	18.398233813932	1051
22	25681	18.406737813932	1051
22	25694	18.415241813932	1051
22	25711	18.423745813932	1051
22	25721	18.432249813932	1051
22	25746	18.444461548107	1051
22	25770	18.452965548107	1051
22	25783	18.461469548107	1051
22	25796	18.469973548107	1051
22	25806	18.478477548107	1051
22	25824	18.489725526544	1051
22	25841	18.507499525564	1051
22	25858	18.525243432171	1051
22	25886	18.542028026836	1051
22	25898	18.550532026836	1051
22	25908	18.559036026836	1051
22	25926	18.581405226593	1051
22	25943	18.595630725288	1051
22	25960	18.613704733536	1051
22	25977	18.632525122346	1051
22	26001	18.653327512868	1051
22	26010	18.661831512868	1051
22	26035	18.691869442912	1051
22	26051	18.700373442912	1051
22	26068	18.708877442912	1051
22	26085	18.717381442912	1051
22	26106	18.725885442912	1051
22	26123	18.734389442912	1051
22	26140	18.742893442912	1051
22	26153	18.751397442912	1051
22	26174	18.759901442912	1051
22	26191	18.768405442912	1051
22	26208	18.776909442912	1051
22	26225	18.785413442912	1051
22	26242	18.793917442912	1051
22	26255	18.802421442912	1051
22	26265	18.810925442912	1051
22	26289	18.819761679645	1051
22	26306	18.828265679645	1051
22	26316	18.836769679645	1051
22	26334	18.847522156362	1051
22	26351	18.893685121099	1051
22	26379	18.905734893505	1051
22	26395	18.914238893505	1051
22	26416	18.922742893505	1051
22	26433	18.931246893505	1051
22	26454	18.939750893505	1051
22	26471	18.948254893505	1051
22	26484	18.956758893505	1051
22	26497	18.965262893505	1051
22	26510	18.973766893505	1051
22	26527	18.982270893505	1051
22	26537	18.990774893505	1051
22	26555	19.002238198652	1051
22	26572	19.020831211083	1051
22	26595	19.029529224495	1051
22	26616	19.038033224495	1051
22	26633	19.046537224495	1051
22	26646	19.055041224495	1051
22	26656	19.063545224495	1051
22	26681	19.077002742156	1051
22	26690	19.085506742156	1051
22	26707	19.094180636687	1051
22	26732	19.112557249002	1051
22	26741	19.121061249002	1051
22	26766	19.134923393281	1051
22	26786	19.143427393281	1051
22	26799	19.151931393281	1051
22	26820	19.160435393281	1051
22	26841	19.168939393281	1051
22	26854	19.177443393281	1051
22	26875	19.185947393281	1051
22	26888	19.194451393281	1051
22	26909	19.202955393281	1051
22	26926	19.211459393281	1051
22	26943	19.219963393281	1051
22	26960	19.228467393281	1051
22	26985	19.236971393281	1051
22	26998	19.245475393281	1051
22	27011	19.253979393281	1051
22	27036	19.262483393281	1051
22	27053	19.270987393281	1051
22	27070	19.279491393281	1051
22	27083	19.287995393281	1051
22	27096	19.296499393281	1051
22	27109	19.305003393281	1051
22	27122	19.313507393281	1051
22	27139	19.322011393281	1051
22	27156	19.330515393281	1051
22	27173	19.339019393281	1051
22	27194	19.347523393281	1051
22	27207	19.356027393281	1051
22	27224	19.364531393281	1051
22	27234	19.373035393281	1051
22	27252	19.389051577921	1051
22	27276	19.404931983272	1051
22	27296	19.413435983272	1051
22	27317	19.421939983272	1051
22	27330	19.430443983272	1051
22	27351	19.438947983272	1051
22	27368	19.447451983272	1051
22	27385	19.455955983272	1051
22	27402	19.464459983272	1051
22	27415	19.472963983272	1051
22	27432	19.481467983272	1051
22	27445	19.489971983272	1051
22	27462	19.498475983272	1051
22	27472	19.506979983272	1051
22	27496	19.515593716647	1051
22	27506	19.524097716647	1051
22	27524	19.535366958362	1051
22	27541	19.557065513277	1051
22	27568	19.566436601057	1051
22	27585	19.574940601057	1051
22	27598	19.583444601057	1051
22	27608	19.591948601057	1051
22	27637	19.615693447934	1051
22	27653	19.624197447934	1051
22	27670	19.632701447934	1051
22	27687	19.641205447934	1051
22	27700	19.649709447934	1051
22	27710	19.658213447934	1051
22	27735	19.682489852262	1051
22	27744	19.690993852262	1051
22	27769	19.719762783066	1051
22	27785	19.728266783066	1051
22	27795	19.736770783066	1051
22	27820	19.764425667862	1051
22	27836	19.772929667862	1051
22	27846	19.781433667862	1051
22	27871	19.814825758438	1051
22	27880	19.823329758438	1051
22	27898	19.842323017687	1051
22	27922	19.856055554369	1051
22	27931	19.864559554369	1051
22	27949	19.910785710945	1051
22	27966	19.923630946562	1051
22	27990	19.940630546624	1051
22	28006	19.949134546624	1051
22	28016	19.957638546624	1051
22	28045	19.987013877479	1051
22	28057	19.995517877479	1051
23	28063	0.1	0
23	28063	0.2	0
23	28063	0.3	0
23	28063	0.4	0
23	28063	0.5	0
23	28063	0.6	0
23	28063	0.7	0
23	28063	0.8	0
23	28063	0.9	0
23	28063	1	0
23	28063	1.1	0
23	28063	1.2	0
23	28063	1.3	0
23	28063	1.4	0
23	28063	1.5	0
23	28063	1.6	0
23	28063	1.7	0
23	28063	1.8	0
23	28063	1.9	0
23	28063	2	0
23	28063	2.1	0
23	28063	2.2	0
23	28063	2.3	0
23	28063	2.4	0
23	28063	2.5	0
23	28063	2.6	0
23	28063	2.7	0
23	28063	2.8	0
23	28063	2.9	0
23	28063	3	0
23	28063	3.1	0
23	28063	3.2	0
23	28063	3.3	0
23	28063	3.4	0
23	28063	3.5	0
23	28063	3.6	0
23	28063	3.7	0
23	28063	3.8	0
23	28063	3.9	0
23	28063	4	0
23	28063	4.1	0
23	28063	4.2	0
23	28063	4.3	0
23	28063	4.4	0
23	28063	4.5	0
23	28063	4.6	0
23	28063	4.7	0
23	28063	4.8	0
23	28063	4.9	0
23	28063	5	0
23	28063	5.1	0
23	28063	5.2	0
23	28063	5.3	0
23	28063	5.4	0
23	28063	5.5	0
23	28063	5.6	0
23	28063	5.7	0
23	28063	5.8	0
23	28063	5.9	0
23	28063	6	0
23	28063	6.1	0
23	28063	6.2	0
23	28063	6.3	0
23	28063	6.4	0
23	28063	6.5	0
23	28063	6.6	0
23	28063	6.7	0
23	28063	6.8	0
23	28063	6.9	0
23	28063	7	0
23	28063	7.1	0
23	28063	7.2	0
23	28063	7.3	0
23	28063	7.4	0
23	28063	7.5	0
23	28063	7.6	0
23	28063	7.7	0
23	28063	7.8	0
23	28063	7.9	0
23	28063	8	0
23	28063	8.1	0
23	28063	8.2	0
23	28063	8.3	0
23	28063	8.4	0
23	28063	8.5	0
23	28063	8.6	0
23	28063	8.7	0
23	28063	8.8	0
23	28063	8.9	0
23	28063	9	0
23	28063	9.1	0
23	28063	9.2	0
23	28063	9.3	0
23	28063	9.4	0
23	28063	9.5	0
23	28063	9.6	0
23	28063	9.7	0
23	28063	9.8	0
23	28063	9.9	0
23	28063	10	0
23	28063	10.1	0
23	28063	10.2	0
23	28063	10.3	0
23	28063	10.4	0
23	28063	10.5	0
23	28063	10.6	0
23	28063	10.7	0
23	28063	10.8	0
23	28063	10.9	0
23	28063	11	0
23	28063	11.1	0
23	28063	11.2	0
23	28063	11.3	0
23	28063	11.4	0
23	28063	11.5	0
23	28063	11.6	0
23	28063	11.7	0
23	28063	11.8	0
23	28063	11.9	0
23	28063	12	0
23	28063	12.1	0
23	28063	12.2	0
23	28063	12.3	0
23	28063	12.4	0
23	28063	12.5	0
23	28063	12.6	0
23	28063	12.7	0
23	28063	12.8	0
23	28063	12.9	0
23	28063	13	0
23	28063	13.1	0
23	28063	13.2	0
23	28063	13.3	0
23	28063	13.4	0
23	28063	13.5	0
23	28063	13.6	0
23	28063	13.7	0
23	28063	13.8	0
23	28063	13.9	0
23	28063	14	0
23	28063	14.1	0
23	28063	14.2	0
23	28063	14.3	0
23	28063	14.4	0
23	28063	14.5	0
23	28063	14.6	0
23	28063	14.7	0
23	28063	14.8	0
23	28063	14.9	0
23	28063	15	0
23	28063	15.1	0
23	28063	15.2	0
23	28063	15.3	0
23	28063	15.4	0
23	28063	15.5	0
23	28063	15.6	0
23	28063	15.7	0
23	28063	15.8	0
23	28063	15.9	0
23	28063	16	0
23	28063	16.1	0
23	28063	16.2	0
23	28063	16.3	0
23	28063	16.4	0
23	28063	16.5	0
23	28063	16.6	0
23	28063	16.7	0
23	28063	16.8	0
23	28063	16.9	0
23	28063	17	0
23	28063	17.1	0
23	28063	17.2	0
23	28063	17.3	0
23	28063	17.4	0
23	28063	17.5	0
23	28063	17.6	0
23	28063	17.7	0
23	28063	17.8	0
23	28063	17.9	0
23	28063	18	0
23	28063	18.1	0
23	28063	18.2	0
23	28063	18.3	0
23	28063	18.4	0
23	28063	18.5	0
23	28063	18.6	0
23	28063	18.7	0
23	28063	18.8	0
23	28063	18.9	0
23	28063	19	0
23	28063	19.1	0
23	28063	19.2	0
23	28063	19.3	0
23	28063	19.4	0
23	28063	19.5	0
23	28063	19.6	0
23	28063	19.7	0
23	28063	19.8	0
23	28063	19.9	0
23	28063	20	0
24	28063	0.1	0
24	28063	0.2	0
24	28063	0.3	0
24	28063	0.4	0
24	28063	0.5	0
24	28063	0.6	0
24	28063	0.7	0
24	28063	0.8	0
24	28063	0.9	0
24	28063	1	0
24	28063	1.1	0
24	28063	1.2	0
24	28063	1.3	0
24	28063	1.4	0
24	28063	1.5	0
24	28063	1.6	0
24	28063	1.7	0
24	28063	1.8	0
24	28063	1.9	0
24	28063	2	0
24	28063	2.1	0
24	28063	2.2	0
24	28063	2.3	0
24	28063	2.4	0
24	28063	2.5	0
24	28063	2.6	0
24	28063	2.7	0
24	28063	2.8	0
24	28063	2.9	0
24	28063	3	0
24	28063	3.1	0
24	28063	3.2	0
24	28063	3.3	0
24	28063	3.4	0
24	28063	3.5	0
24	28063	3.6	0
24	28063	3.7	0
24	28063	3.8	0
24	28063	3.9	0
24	28063	4	0
24	28063	4.1	0
24	28063	4.2	0
24	28063	4.3	0
24	28063	4.4	0
24	28063	4.5	0
24	28063	4.6	0
24	28063	4.7	0
24	28063	4.8	0
24	28063	4.9	0
24	28063	5	0
24	28063	5.1	0
24	28063	5.2	0
24	28063	5.3	0
24	28063	5.4	0
24	28063	5.5	0
24	28063	5.6	0
24	28063	5.7	0
24	28063	5.8	0
24	28063	5.9	0
24	28063	6	0
24	28063	6.1	0
24	28063	6.2	0
24	28063	6.3	0
24	28063	6.4	0
24	28063	6.5	0
24	28063	6.6	0
24	28063	6.7	0
24	28063	6.8	0
24	28063	6.9	0
24	28063	7	0
24	28063	7.1	0
24	28063	7.2	0
24	28063	7.3	0
24	28063	7.4	0
24	28063	7.5	0
24	28063	7.6	0
24	28063	7.7	0
24	28063	7.8	0
24	28063	7.9	0
24	28063	8	0
24	28063	8.1	0
24	28063	8.2	0
24	28063	8.3	0
24	28063	8.4	0
24	28063	8.5	0
24	28063	8.6	0
24	28063	8.7	0
24	28063	8.8	0
24	28063	8.9	0
24	28063	9	0
24	28063	9.1	0
24	28063	9.2	0
24	28063	9.3	0
24	28063	9.4	0
24	28063	9.5	0
24	28063	9.6	0
24	28063	9.7	0
24	28063	9.8	0
24	28063	9.9	0
24	28063	10	0
24	28063	10.1	0
24	28063	10.2	0
24	28063	10.3	0
24	28063	10.4	0
24	28063	10.5	0
24	28063	10.6	0
24	28063	10.7	0
24	28063	10.8	0
24	28063	10.9	0
24	28063	11	0
24	28063	11.1	0
24	28063	11.2	0
24	28063	11.3	0
24	28063	11.4	0
24	28063	11.5	0
24	28063	11.6	0
24	28063	11.7	0
24	28063	11.8	0
24	28063	11.9	0
24	28063	12	0
24	28063	12.1	0
24	28063	12.2	0
24	28063	12.3	0
24	28063	12.4	0
24	28063	12.5	0
24	28063	12.6	0
24	28063	12.7	0
24	28063	12.8	0
24	28063	12.9	0
24	28063	13	0
24	28063	13.1	0
24	28063	13.2	0
24	28063	13.3	0
24	28063	13.4	0
24	28063	13.5	0
24	28063	13.6	0
24	28063	13.7	0
24	28063	13.8	0
24	28063	13.9	0
24	28063	14	0
24	28063	14.1	0
24	28063	14.2	0
24	28063	14.3	0
24	28063	14.4	0
24	28063	14.5	0
24	28063	14.6	0
24	28063	14.7	0
24	28063	14.8	0
24	28063	14.9	0
24	28063	15	0
24	28063	15.1	0
24	28063	15.2	0
24	28063	15.3	0
24	28063	15.4	0
24	28063	15.5	0
24	28063	15.6	0
24	28063	15.7	0
24	28063	15.8	0
24	28063	15.9	0
24	28063	16	0
24	28063	16.1	0
24	28063	16.2	0
24	28063	16.3	0
24	28063	16.4	0
24	28063	16.5	0
24	28063	16.6	0
24	28063	16.7	0
24	28063	16.8	0
24	28063	16.9	0
24	28063	17	0
24	28063	17.1	0
24	28063	17.2	0
24	28063	17.3	0
24	28063	17.4	0
24	28063	17.5	0
24	28063	17.6	0
24	28063	17.7	0
24	28063	17.8	0
24	28063	17.9	0
24	28063	18	0
24	28063	18.1	0
24	28063	18.2	0
24	28063	18.3	0
24	28063	18.4	0
24	28063	18.5	0
24	28063	18.6	0
24	28063	18.7	0
24	28063	18.8	0
24	28063	18.9	0
24	28063	19	0
24	28063	19.1	0
24	28063	19.2	0
24	28063	19.3	0
24	28063	19.4	0
24	28063	19.5	0
24	28063	19.6	0
24	28063	19.7	0
24	28063	19.8	0
24	28063	19.9	0
24	28063	20	0

