version 2
run Wireless07-0-20210902-10:42:43-12756
attr configname Wireless07
attr datetime 20210902-10:42:43
attr experiment Wireless07
attr inifile omnetpp.ini
attr iterationvars ""
attr iterationvarsf ""
attr measurement ""
attr network WirelessB
attr processid 12756
attr repetition 0
attr replication #0
attr resultdir results
attr runnumber 0
attr seedset 0
param *.host*.wlan[0].mac.useAck true
param *.host*.wlan[0].typename "\"WirelessInterface\""
param *.host*.wlan[0].radio.typename "\"UnitDiskRadio\""
param *.host*.wlan[0].mac.typename "\"CsmaCaMac\""
param *.host*.wlan[0].mac.ackTimeout 300us
param *.host*.wlan[0].radio.receiver.ignoreInterference false
param *.host*.wlan[0].radio.transmitter.interferenceRange 500m
param *.hostA.wlan[0].radio.displayInterferenceRange true
param *.visualizer.dataLinkVisualizer.packetFilter "\"\""
param *.host*.forwarding true
param *.configurator.config "xml(\"<config><interface hosts='**' address='10.0.0.x' netmask='255.255.255.0'/><autoroute metric='errorRate'/></config>\")"
param *.configurator.optimizeRoutes false
param *.host*.ipv4.routingTable.netmaskRoutes "\"\""
param *.visualizer.physicalLinkVisualizer.displayLinks true
param *.visualizer.dataLinkVisualizer.displayLinks true
param *.visualizer.networkRouteVisualizer.displayRoutes true
param *.visualizer.*LinkVisualizer.lineShift 0
param *.visualizer.networkRouteVisualizer.lineShift 0
param *.visualizer.networkRouteVisualizer.packetFilter "\"UDPData*\""
param *.host*.wlan[0].radio.transmitter.communicationRange 250m
param *.hostR1.wlan[0].radio.displayCommunicationRange true
param *.hostA.wlan[0].radio.displayCommunicationRange true
param *.visualizer.sceneVisualizer.descriptionFigure "\"title\""
param *.visualizer.mediumVisualizer.displaySignals true
param *.visualizer.physicalLinkVisualizer.displayLinks true
param *.visualizer.physicalLinkVisualizer.packetFilter "\"UDPData*\""
param *.host*.ipv4.arp.typename "\"GlobalArp\""
param *.hostA.numApps 1
param *.hostA.app[0].typename "\"UdpBasicApp\""
param *.hostA.app[0].destAddresses "\"hostB\""
param *.hostA.app[0].destPort 5000
param *.hostA.app[0].messageLength 1000B
param *.hostA.app[0].sendInterval exponential(12ms)
param *.hostA.app[0].packetName "\"UDPData\""
param *.hostB.numApps 1
param *.hostB.app[0].typename "\"UdpSink\""
param *.hostB.app[0].localPort 5000
param *.host*.wlan[0].typename "\"AckingWirelessInterface\""
param *.host*.wlan[0].mac.useAck false
param *.host*.wlan[0].mac.fullDuplex false
param *.host*.wlan[0].radio.transmitter.communicationRange 500m
param *.host*.wlan[0].radio.receiver.ignoreInterference true
param *.host*.wlan[0].mac.headerLength 23B
param *.host*.**.bitrate 1Mbps

vector 0 WirelessB.hostA.wlan[0].radio radioMode:vector ETV
attr interpolationmode sample-hold
attr source radioModeChanged
attr title "Radio mode, vector"
vector 1 WirelessB.hostB.wlan[0].radio radioMode:vector ETV
attr interpolationmode sample-hold
attr source radioModeChanged
attr title "Radio mode, vector"
vector 2 WirelessB.hostR1.wlan[0].radio radioMode:vector ETV
attr interpolationmode sample-hold
attr source radioModeChanged
attr title "Radio mode, vector"
vector 3 WirelessB.hostR2.wlan[0].radio radioMode:vector ETV
attr interpolationmode sample-hold
attr source radioModeChanged
attr title "Radio mode, vector"
vector 4 WirelessB.hostR3.wlan[0].radio radioMode:vector ETV
attr interpolationmode sample-hold
attr source radioModeChanged
attr title "Radio mode, vector"
vector 5 WirelessB.hostA.wlan[0].radio receptionState:vector ETV
attr interpolationmode sample-hold
attr source receptionStateChanged
attr title "Radio reception state, vector"
vector 6 WirelessB.hostB.wlan[0].radio receptionState:vector ETV
attr interpolationmode sample-hold
attr source receptionStateChanged
attr title "Radio reception state, vector"
vector 7 WirelessB.hostR1.wlan[0].radio receptionState:vector ETV
attr interpolationmode sample-hold
attr source receptionStateChanged
attr title "Radio reception state, vector"
vector 8 WirelessB.hostR2.wlan[0].radio receptionState:vector ETV
attr interpolationmode sample-hold
attr source receptionStateChanged
attr title "Radio reception state, vector"
vector 9 WirelessB.hostR3.wlan[0].radio receptionState:vector ETV
attr interpolationmode sample-hold
attr source receptionStateChanged
attr title "Radio reception state, vector"
vector 10 WirelessB.hostA.app[0] packetSent:vector(packetBytes) ETV
attr interpolationmode none
attr source packetSent
attr title "packets sent, vector(packetBytes)"
vector 11 WirelessB.hostA.udp packetSent:vector(packetBytes) ETV
attr interpolationmode none
attr source packetSent
attr title "packets sent, vector(packetBytes)"
vector 12 WirelessB.hostA.wlan[0].mac.queue packetPushed:vector(packetBytes) ETV
attr interpolationmode none
attr title "packet pushed, vector(packetBytes)"
vector 13 WirelessB.hostA.wlan[0].mac.queue queueLength:vector ETV
attr interpolationmode sample-hold
attr source "count(packetPushed) - count(packetPopped) - count(packetRemoved) - count(packetDropped)"
attr title "queue length, vector"
vector 14 WirelessB.hostA.wlan[0].mac.queue packetPopped:vector(packetBytes) ETV
attr interpolationmode none
attr title "packet popped, vector(packetBytes)"
vector 15 WirelessB.hostA.wlan[0].mac.queue queueingTime:vector ETV
attr interpolationmode none
attr source queueingTime(packetPopped)
attr title "queueing times, vector"
attr unit s
vector 16 WirelessB.hostA.wlan[0].radio transmissionState:vector ETV
attr interpolationmode sample-hold
attr source transmissionStateChanged
attr title "Radio transmission state, vector"
vector 17 WirelessB.hostR2.wlan[0].mac packetDropNotAddressedToUs:vector(packetBytes) ETV
attr interpolationmode none
attr source packetDropReasonIsNotAddressedToUs(packetDropped)
attr title "packet drop: not addressed to us, vector(packetBytes)"
vector 18 WirelessB.hostR1.wlan[0].mac.queue packetPushed:vector(packetBytes) ETV
attr interpolationmode none
attr title "packet pushed, vector(packetBytes)"
vector 19 WirelessB.hostR1.wlan[0].mac.queue queueLength:vector ETV
attr interpolationmode sample-hold
attr source "count(packetPushed) - count(packetPopped) - count(packetRemoved) - count(packetDropped)"
attr title "queue length, vector"
vector 20 WirelessB.hostR1.wlan[0].radio transmissionState:vector ETV
attr interpolationmode sample-hold
attr source transmissionStateChanged
attr title "Radio transmission state, vector"
vector 21 WirelessB.hostR1.wlan[0].mac.queue packetPopped:vector(packetBytes) ETV
attr interpolationmode none
attr title "packet popped, vector(packetBytes)"
vector 22 WirelessB.hostR1.wlan[0].mac.queue queueingTime:vector ETV
attr interpolationmode none
attr source queueingTime(packetPopped)
attr title "queueing times, vector"
attr unit s
vector 23 WirelessB.hostR3.wlan[0].mac packetDropNotAddressedToUs:vector(packetBytes) ETV
attr interpolationmode none
attr source packetDropReasonIsNotAddressedToUs(packetDropped)
attr title "packet drop: not addressed to us, vector(packetBytes)"
vector 24 WirelessB.hostA.wlan[0].mac packetDropNotAddressedToUs:vector(packetBytes) ETV
attr interpolationmode none
attr source packetDropReasonIsNotAddressedToUs(packetDropped)
attr title "packet drop: not addressed to us, vector(packetBytes)"
vector 25 WirelessB.hostB.udp packetReceived:vector(packetBytes) ETV
attr interpolationmode none
attr source packetReceived
attr title "packets received, vector(packetBytes)"
vector 26 WirelessB.hostB.udp passedUpPk:vector(count) ETV
attr interpolationmode none
attr source packetSentToUpper
attr title "packets passed up, vector(count)"
vector 27 WirelessB.hostB.app[0] packetReceived:vector(packetBytes) ETV
attr interpolationmode none
attr source packetReceived
attr title "packets received, vector(packetBytes)"
vector 28 WirelessB.hostB.app[0] endToEndDelay:vector ETV
attr interpolationmode none
attr source dataAge(packetReceived)
attr title "end-to-end delay, vector"
attr unit s
vector 29 WirelessB.hostB.app[0] rcvdPkSeqNo:vector ETV
attr interpolationmode none
attr source appPkSeqNo(packetReceived)
attr title "received packet sequence number, vector"
vector 30 WirelessB.hostB.wlan[0].radio transmissionState:vector ETV
attr interpolationmode sample-hold
attr source transmissionStateChanged
attr title "Radio transmission state, vector"
vector 31 WirelessB.hostB.app[0] throughput:vector ETV
attr source throughput(packetReceived)
attr title "throughput, vector"
attr unit bps
vector 32 WirelessB.hostR2.wlan[0].mac packetDropIncorrectlyReceived:vector(packetBytes) ETV
attr interpolationmode none
attr source packetDropReasonIsIncorrectlyReceived(packetDropped)
attr title "packet drop: incorrectly received, vector(packetBytes)"
vector 33 WirelessB.hostR3.wlan[0].mac packetDropIncorrectlyReceived:vector(packetBytes) ETV
attr interpolationmode none
attr source packetDropReasonIsIncorrectlyReceived(packetDropped)
attr title "packet drop: incorrectly received, vector(packetBytes)"
vector 34 WirelessB.hostB.wlan[0].mac packetDropIncorrectlyReceived:vector(packetBytes) ETV
attr interpolationmode none
attr source packetDropReasonIsIncorrectlyReceived(packetDropped)
attr title "packet drop: incorrectly received, vector(packetBytes)"
vector 35 WirelessB.hostA.app[0] throughput:vector ETV
attr source throughput(packetReceived)
attr title "throughput, vector"
attr unit bps
0	0	0	0
0	0	0	0
0	0	0	2
0	10	0.022885250545	3
0	20	0.031421250545	2
0	78	0.041019929441	3
0	90	0.049555929441	2
0	116	0.049957274081	3
0	140	0.058493274081	2
0	166	0.058894618721	3
0	174	0.067430618721	2
0	274	0.086006642257	3
0	282	0.094542642257	2
0	308	0.094903986897	3
0	320	0.103439986897	2
0	381	0.112958665793	3
0	389	0.121494665793	2
0	497	0.139850689329	3
0	509	0.148386689329	2
0	535	0.148888033969	3
0	547	0.157424033969	2
0	573	0.157785378609	3
0	585	0.166321378609	2
0	646	0.175820057505	3
0	658	0.184356057505	2
0	684	0.184657402145	3
0	696	0.193193402145	2
0	722	0.193914746785	3
0	734	0.202450746785	2
0	799	0.211749425681	3
0	811	0.220285425681	2
0	876	0.229624104577	3
0	888	0.238160104577	2
0	914	0.238601449217	3
0	922	0.247137449217	2
0	948	0.247618793857	3
0	960	0.256154793857	2
0	990	0.256576138497	3
0	1011	0.265112138497	2
0	1021	0.265822138497	3
0	1033	0.274358138497	2
0	1059	0.274939483137	3
0	1067	0.283475483137	2
0	1097	0.284016827777	3
0	1113	0.292552827777	2
0	1178	0.301771506673	3
0	1190	0.310307506673	2
0	1216	0.310668851313	3
0	1228	0.319204851313	2
0	1293	0.328743530209	3
0	1305	0.337279530209	2
0	1374	0.346718209105	3
0	1390	0.355254209105	2
0	1416	0.355615553745	3
0	1428	0.364151553745	2
0	1454	0.364552898385	3
0	1470	0.373088898385	2
0	1531	0.382307577281	3
0	1539	0.390843577281	2
0	1674	0.417976945457	3
0	1686	0.426512945457	2
0	1755	0.436071624353	3
0	1779	0.444607624353	2
0	1844	0.454346303249	3
0	1852	0.462882303249	2
0	1878	0.463243647889	3
0	1886	0.471779647889	2
0	1951	0.481278326785	3
0	1963	0.489814326785	2
0	2145	0.526005039601	3
0	2157	0.534541039601	2
0	2222	0.544119718497	3
0	2234	0.552655718497	2
0	2303	0.562174397393	3
0	2315	0.570710397393	2
0	2341	0.571051742033	3
0	2353	0.579587742033	2
0	2379	0.579929086673	3
0	2387	0.588465086673	2
0	2413	0.588986431313	3
0	2425	0.597522431313	2
0	2490	0.606821110209	3
0	2502	0.615357110209	2
0	2528	0.615698454849	3
0	2536	0.624234454849	2
0	2562	0.625015799489	3
0	2570	0.633551799489	2
0	2635	0.643090478385	3
0	2643	0.651626478385	2
0	2743	0.669882501921	3
0	2762	0.678418501921	2
0	2887	0.706480535841	3
0	2910	0.715016535841	2
0	3121	0.761753259041	3
0	3133	0.770289259041	2
0	3159	0.770730603681	3
0	3171	0.779266603681	2
0	3240	0.788705282577	3
0	3260	0.797241282577	2
0	3360	0.815837306113	3
0	3372	0.824373306113	2
0	3398	0.825034650753	3
0	3418	0.833570650753	2
0	3479	0.843149329649	3
0	3487	0.851685329649	2
0	3583	0.870241353185	3
0	3595	0.878777353185	2
0	3621	0.879298697825	3
0	3637	0.887834697825	2
0	3745	0.906030721361	3
0	3760	0.914566721361	2
0	3772	0.915296721361	3
0	3788	0.923832721361	2
0	3849	0.933251400257	3
0	3857	0.941787400257	2
0	3930	0.951346079153	3
0	3938	0.959882079153	2
0	4069	0.987155447329	3
0	4081	0.995691447329	2
0	4107	0.996052791969	3
0	4115	1.004588791969	2
0	4219	1.023184815505	3
0	4227	1.031720815505	2
0	4412	1.067951528321	3
0	4420	1.076487528321	2
0	4484	1.085726207217	3
0	4496	1.094262207217	2
0	4522	1.094723551857	3
0	4530	1.103259551857	2
0	4629	1.121815575393	3
0	4641	1.130351575393	2
0	4667	1.130812920033	3
0	4683	1.139348920033	2
0	4709	1.139710264673	3
0	4717	1.148246264673	2
0	4743	1.148687609313	3
0	4751	1.157223609313	2
0	4851	1.175759632849	3
0	4863	1.184295632849	2
0	4924	1.193794311745	3
0	4932	1.202330311745	2
0	4993	1.212048990641	3
0	5001	1.220584990641	2
0	5105	1.239141014177	3
0	5113	1.247677014177	2
0	5220	1.266233037713	3
0	5236	1.274769037713	2
0	5304	1.284267716609	3
0	5324	1.292803716609	2
0	5350	1.293105061249	3
0	5362	1.301641061249	2
0	5461	1.320177084785	3
0	5477	1.328713084785	2
0	5503	1.329214429425	3
0	5511	1.337750429425	2
0	5537	1.338131774065	3
0	5553	1.346667774065	2
0	5614	1.355866452961	3
0	5622	1.364402452961	2
0	5648	1.364863797601	3
0	5660	1.373399797601	2
0	5725	1.383118476497	3
0	5737	1.391654476497	2
0	5798	1.400953155393	3
0	5806	1.409489155393	2
0	5906	1.427925178929	3
0	5914	1.436461178929	2
0	5940	1.437162523569	3
0	5952	1.445698523569	2
0	6017	1.455057202465	3
0	6025	1.463593202465	2
0	6051	1.463894547105	3
0	6063	1.472430547105	2
0	6124	1.482009226001	3
0	6132	1.490545226001	2
0	6158	1.491246570641	3
0	6170	1.499782570641	2
0	6270	1.518198594177	3
0	6282	1.526734594177	2
0	6390	1.544970617713	3
0	6398	1.553506617713	2
0	6463	1.562785296609	3
0	6471	1.571321296609	2
0	6497	1.571822641249	3
0	6513	1.580358641249	2
0	6613	1.598714664785	3
0	6621	1.607250664785	2
0	6647	1.607592009425	3
0	6659	1.616128009425	2
0	6728	1.625686688321	3
0	6736	1.634222688321	2
0	6762	1.634884032961	3
0	6770	1.643420032961	2
0	6831	1.652818711857	3
0	6843	1.661354711857	2
0	6869	1.661856056497	3
0	6877	1.670392056497	2
0	6977	1.688788080033	3
0	6985	1.697324080033	2
0	7101	1.715820103569	3
0	7109	1.724356103569	2
0	7170	1.733654782465	3
0	7182	1.742190782465	2
0	7243	1.751649461361	3
0	7251	1.760185461361	2
0	7312	1.769764140257	3
0	7320	1.778300140257	2
0	7346	1.778901484897	3
0	7354	1.787437484897	2
0	7458	1.805913508433	3
0	7466	1.814449508433	2
0	7570	1.832925531969	3
0	7578	1.841461531969	2
0	7639	1.851060210865	3
0	7647	1.859596210865	2
0	7673	1.859977555505	3
0	7681	1.868513555505	2
0	7750	1.877992234401	3
0	7758	1.886528234401	2
0	7819	1.896166913297	3
0	7835	1.904702913297	2
0	7896	1.914381592193	3
0	7908	1.922917592193	2
0	7969	1.932476271089	3
0	7977	1.941012271089	2
0	8089	1.959368294625	3
0	8101	1.967904294625	2
0	8162	1.977442973521	3
0	8174	1.985978973521	2
0	8239	1.995717652417	3
0	8247	2.004253652417	2
0	8273	2.004634997057	3
0	8281	2.013170997057	2
0	8307	2.013552341697	3
0	8315	2.022088341697	2
0	8376	2.031547020593	3
0	8384	2.040083020593	2
0	8484	2.058319044129	3
0	8492	2.066855044129	2
0	8522	2.067696388769	3
0	8539	2.076232388769	2
0	8598	2.086679723025	3
0	8604	2.095215723025	2
0	8630	2.095577067665	3
0	8638	2.104113067665	2
0	8738	2.122469091201	3
0	8746	2.131005091201	2
0	8772	2.131346435841	3
0	8784	2.139882435841	2
0	8810	2.140243780481	3
0	8818	2.148779780481	2
0	8891	2.158158459377	3
0	8903	2.166694459377	2
0	8929	2.167055804017	3
0	8941	2.175591804017	2
0	8967	2.175953148657	3
0	8979	2.184489148657	2
0	9005	2.184950493297	3
0	9021	2.193486493297	2
0	9168	2.220819861473	3
0	9184	2.229355861473	2
0	9210	2.229717206113	3
0	9222	2.238253206113	2
0	9252	2.238794550753	3
0	9277	2.247330550753	2
0	9400	2.274812574289	3
0	9416	2.283348574289	2
0	9442	2.283809918929	3
0	9450	2.292345918929	2
0	9511	2.301704597825	3
0	9523	2.310240597825	2
0	9588	2.319759276721	3
0	9604	2.328295276721	2
0	9630	2.328596621361	3
0	9642	2.337132621361	2
0	9777	2.364225989537	3
0	9785	2.372761989537	2
0	9846	2.382440668433	3
0	9858	2.390976668433	2
0	9923	2.400295347329	3
0	9935	2.408831347329	2
0	9961	2.409192691969	3
0	9977	2.417728691969	2
0	10003	2.418330036609	3
0	10023	2.426866036609	2
0	10088	2.436364715505	3
0	10104	2.444900715505	2
0	10165	2.454559394401	3
0	10173	2.463095394401	2
0	10273	2.481591417937	3
0	10281	2.490127417937	2
0	10311	2.490468762577	3
0	10332	2.499004762577	2
0	10387	2.509112096833	3
0	10393	2.517648096833	2
0	10419	2.518109441473	3
0	10443	2.526645441473	2
0	10543	2.545041465009	3
0	10551	2.553577465009	2
0	10690	2.580810833185	3
0	10698	2.589346833185	2
0	10771	2.598845512081	3
0	10787	2.607381512081	2
0	10934	2.634774880257	3
0	10954	2.643310880257	2
0	10980	2.643612224897	3
0	10992	2.652148224897	2
0	11018	2.652489569537	3
0	11026	2.661025569537	2
0	11181	2.688138937713	3
0	11193	2.696674937713	2
0	11219	2.697076282353	3
0	11231	2.705612282353	2
0	11257	2.706173626993	3
0	11273	2.714709626993	2
0	11424	2.742142995169	3
0	11440	2.750678995169	2
0	11583	2.777952363345	3
0	11591	2.786488363345	2
0	11690	2.804904386881	3
0	11706	2.813440386881	2
0	11732	2.813941731521	3
0	11740	2.822477731521	2
0	11766	2.822839076161	3
0	11778	2.831375076161	2
0	11847	2.841013755057	3
0	11855	2.849549755057	2
0	11959	2.867885778593	3
0	11967	2.876421778593	2
0	12066	2.894997802129	3
0	12082	2.903533802129	2
0	12142	2.913152481025	3
0	12154	2.921688481025	2
0	12214	2.931107159921	3
0	12222	2.939643159921	2
0	12248	2.940084504561	3
0	12256	2.948620504561	2
0	12321	2.958179183457	3
0	12344	2.966715183457	2
0	12360	2.967405183457	3
0	12372	2.975941183457	2
0	12437	2.985519862353	3
0	12445	2.994055862353	2
0	12506	3.003654541249	3
0	12514	3.012190541249	2
0	12587	3.021829220145	3
0	12595	3.030365220145	2
0	12660	3.039743899041	3
0	12668	3.048279899041	2
0	12694	3.048661243681	3
0	12702	3.057197243681	2
0	12771	3.066655922577	3
0	12779	3.075191922577	2
0	12844	3.084590601473	3
0	12856	3.093126601473	2
0	12882	3.093567946113	3
0	12894	3.102103946113	2
0	12955	3.111522625009	3
0	12967	3.120058625009	2
0	12993	3.120759969649	3
0	13001	3.129295969649	2
0	13066	3.138634648545	3
0	13074	3.147170648545	2
0	13135	3.156629327441	3
0	13143	3.165165327441	2
0	13204	3.174664006337	3
0	13216	3.183200006337	2
0	13324	3.201576029873	3
0	13340	3.210112029873	2
0	13475	3.237445398049	3
0	13483	3.245981398049	2
0	13513	3.246302742689	3
0	13530	3.254838742689	2
0	13609	3.273643421585	3
0	13621	3.282179421585	2
0	13647	3.282540766225	3
0	13659	3.291076766225	2
0	13724	3.300695445121	3
0	13732	3.309231445121	2
0	13758	3.310092789761	3
0	13766	3.318628789761	2
0	13827	3.327927468657	3
0	13839	3.336463468657	2
0	13865	3.336904813297	3
0	13873	3.345440813297	2
0	13938	3.354779492193	3
0	13946	3.363315492193	2
0	13976	3.363976836833	3
0	13993	3.372512836833	2
0	14150	3.409092205009	3
0	14158	3.417628205009	2
0	14184	3.417989549649	3
0	14196	3.426525549649	2
0	14222	3.427206894289	3
0	14234	3.435742894289	2
0	14338	3.454078917825	3
0	14346	3.462614917825	2
0	14380	3.462956262465	3
0	14397	3.471492262465	2
0	14407	3.472082262465	3
0	14419	3.480618262465	2
0	14445	3.480939607105	3
0	14453	3.489475607105	2
0	14483	3.489876951745	3
0	14491	3.498412951745	2
0	14517	3.498834296385	3
0	14525	3.507370296385	2
0	14551	3.507691641025	3
0	14563	3.516227641025	2
0	14702	3.543621009201	3
0	14714	3.552157009201	2
0	14740	3.552838353841	3
0	14760	3.561374353841	2
0	14833	3.570933032737	3
0	14841	3.579469032737	2
0	14902	3.588847711633	3
0	14910	3.597383711633	2
0	14936	3.597925056273	3
0	14944	3.606461056273	2
0	15009	3.616019735169	3
0	15021	3.624555735169	2
0	15125	3.643091758705	3
0	15137	3.651627758705	2
0	15202	3.661366437601	3
0	15210	3.669902437601	2
0	15236	3.670303782241	3
0	15244	3.678839782241	2
0	15305	3.688078461137	3
0	15317	3.696614461137	2
0	15343	3.696915805777	3
0	15355	3.705451805777	2
0	15381	3.705753150417	3
0	15393	3.714289150417	2
0	15419	3.714830495057	3
0	15427	3.723366495057	2
0	15640	3.768434552513	3
0	15648	3.776970552513	2
0	15709	3.786209231409	3
0	15721	3.794745231409	2
0	15747	3.795386576049	3
0	15755	3.803922576049	2
0	15820	3.813441254945	3
0	15832	3.821977254945	2
0	15975	3.849370623121	3
0	15983	3.857906623121	2
0	16048	3.867365302017	3
0	16063	3.875901302017	2
0	16242	3.912640680577	3
0	16254	3.921176680577	2
0	16314	3.930915359473	3
0	16322	3.939451359473	2
0	16382	3.949130038369	3
0	16402	3.957666038369	2
0	16428	3.958287383009	3
0	16436	3.966823383009	2
0	16543	3.985339406545	3
0	16551	3.993875406545	2
0	16577	3.994696751185	3
0	16585	4.003232751185	2
0	16611	4.003574095825	3
0	16627	4.012110095825	2
0	16688	4.021508774721	3
0	16700	4.030044774721	2
0	16769	4.039563453617	3
0	16785	4.048099453617	2
0	16915	4.075472821793	3
0	16927	4.084008821793	2
0	16987	4.093467500689	3
0	16999	4.102003500689	2
0	17063	4.111582179585	3
0	17079	4.120118179585	2
0	17143	4.129796858481	3
0	17159	4.138332858481	2
0	17185	4.138794203121	3
0	17193	4.147330203121	2
0	17288	4.165866226657	3
0	17296	4.174402226657	2
0	17322	4.174863571297	3
0	17334	4.183399571297	2
0	17399	4.193138250193	3
0	17411	4.201674250193	2
0	17472	4.211412929089	3
0	17480	4.219948929089	2
0	17575	4.238244952625	3
0	17583	4.246780952625	2
0	17643	4.256499631521	3
0	17651	4.265035631521	2
0	17677	4.265356976161	3
0	17685	4.273892976161	2
0	17711	4.274654320801	3
0	17723	4.283190320801	2
0	17788	4.292788999697	3
0	17796	4.301324999697	2
0	17900	4.319821023233	3
0	17908	4.328357023233	2
0	17934	4.328758367873	3
0	17950	4.337294367873	2
0	18015	4.346533046769	3
0	18023	4.355069046769	2
0	18053	4.355750391409	3
0	18078	4.364286391409	2
0	18127	4.374133725665	3
0	18143	4.382669725665	2
0	18169	4.382971070305	3
0	18177	4.391507070305	2
0	18207	4.391888414945	3
0	18228	4.400424414945	2
0	18385	4.437363783121	3
0	18393	4.445899783121	2
0	18457	4.455458462017	3
0	18469	4.463994462017	2
0	18495	4.464355806657	3
0	18507	4.472891806657	2
0	18606	4.491167830193	3
0	18614	4.499703830193	2
0	18640	4.500085174833	3
0	18656	4.508621174833	2
0	18690	4.509302519473	3
0	18707	4.517838519473	2
0	18752	4.527285853729	3
0	18760	4.535821853729	2
0	18821	4.545300532625	3
0	18833	4.553836532625	2
0	18910	4.563375211521	3
0	18918	4.571911211521	2
0	18979	4.581469890417	3
0	18991	4.590005890417	2
0	19060	4.599444569313	3
0	19068	4.607980569313	2
0	19167	4.626336592849	3
0	19175	4.634872592849	2
0	19201	4.635193937489	3
0	19213	4.643729937489	2
0	19239	4.644151282129	3
0	19251	4.652687282129	2
0	19277	4.653248626769	3
0	19285	4.661784626769	2
0	19350	4.671043305665	3
0	19366	4.679579305665	2
0	19427	4.689237984561	3
0	19439	4.697773984561	2
0	19469	4.698575329201	3
0	19490	4.707111329201	2
0	19539	4.716998663457	3
0	19547	4.725534663457	2
0	19608	4.734813342353	3
0	19624	4.743349342353	2
0	19724	4.761785365889	3
0	19732	4.770321365889	2
0	19793	4.779980044785	3
0	19801	4.788516044785	2
0	19874	4.798134723681	3
0	19893	4.806670723681	2
0	19906	4.807600723681	3
0	19917	4.816136723681	2
0	19945	4.816718068321	3
0	19967	4.825254068321	2
0	19993	4.825775412961	3
0	20005	4.834311412961	2
0	20105	4.852607436497	3
0	20117	4.861143436497	2
0	20143	4.861804781137	3
0	20155	4.870340781137	2
0	20181	4.870642125777	3
0	20189	4.879178125777	2
0	20250	4.888736804673	3
0	20262	4.897272804673	2
0	20331	4.906771483569	3
0	20343	4.915307483569	2
0	20369	4.915668828209	3
0	20377	4.924204828209	2
0	20442	4.933543507105	3
0	20450	4.942079507105	2
0	20511	4.951738186001	3
0	20527	4.960274186001	2
0	20553	4.960795530641	3
0	20561	4.969331530641	2
0	20661	4.987807554177	3
0	20669	4.996343554177	2
0	20695	4.996684898817	3
0	20703	5.005220898817	2
0	20733	5.005542243457	3
0	20750	5.014078243457	2
0	20760	5.014748243457	3
0	20768	5.023284243457	2
0	20794	5.023605588097	3
0	20802	5.032141588097	2
0	20828	5.032762932737	3
0	20844	5.041298932737	2
0	20870	5.041760277377	3
0	20882	5.050296277377	2
0	20908	5.050797622017	3
0	20920	5.059333622017	2
0	20946	5.059634966657	3
0	20958	5.068170966657	2
0	21066	5.086766990193	3
0	21074	5.095302990193	2
0	21170	5.113779013729	3
0	21178	5.122315013729	2
0	21247	5.131653692625	3
0	21255	5.140189692625	2
0	21398	5.167603060801	3
0	21406	5.176139060801	2
0	21475	5.185637739697	3
0	21498	5.194173739697	2
0	21580	5.213338428977	3
0	21596	5.221874428977	2
0	21622	5.222455773617	3
0	21634	5.230991773617	2
0	21699	5.240590452513	3
0	21711	5.249126452513	2
0	21811	5.267402476049	3
0	21819	5.275938476049	2
0	21880	5.285677154945	3
0	21892	5.294213154945	2
0	21988	5.312549178481	3
0	21996	5.321085178481	2
0	22022	5.321406523121	3
0	22030	5.329942523121	2
0	22056	5.330583867761	3
0	22068	5.339119867761	2
0	22207	5.366433235937	3
0	22219	5.374969235937	2
0	22245	5.375270580577	3
0	22257	5.383806580577	2
0	22318	5.393385259473	3
0	22334	5.401921259473	2
0	22364	5.402262604113	3
0	22372	5.410798604113	2
0	22542	5.446869316929	3
0	22550	5.455405316929	2
0	22650	5.473881340465	3
0	22662	5.482417340465	2
0	22688	5.482798685105	3
0	22696	5.491334685105	2
0	22796	5.509650708641	3
0	22808	5.518186708641	2
0	22869	5.527865387537	3
0	22885	5.536401387537	2
0	22911	5.536842732177	3
0	22919	5.545378732177	2
0	22980	5.554897411073	3
0	22992	5.563433411073	2
0	23018	5.563734755713	3
0	23034	5.572270755713	2
0	23095	5.581829434609	3
0	23103	5.590365434609	2
0	23164	5.600024113505	3
0	23176	5.608560113505	2
0	23241	5.617898792401	3
0	23249	5.626434792401	2
0	23310	5.635753471297	3
0	23318	5.644289471297	2
0	23344	5.644650815937	3
0	23356	5.653186815937	2
0	23382	5.653528160577	3
0	23390	5.662064160577	2
0	23416	5.662445505217	3
0	23428	5.670981505217	2
0	23454	5.671362849857	3
0	23470	5.679898849857	2
0	23543	5.689477528753	3
0	23555	5.698013528753	2
0	23581	5.698474873393	3
0	23589	5.707010873393	2
0	23666	5.716629552289	3
0	23678	5.725165552289	2
0	23704	5.725626896929	3
0	23712	5.734162896929	2
0	23812	5.752678920465	3
0	23820	5.761214920465	2
0	23846	5.761516265105	3
0	23858	5.770052265105	2
0	23888	5.770513609745	3
0	23896	5.779049609745	2
0	23922	5.779350954385	3
0	23934	5.787886954385	2
0	24073	5.815260322561	3
0	24096	5.823796322561	2
0	24110	5.825246322561	3
0	24124	5.833782322561	2
0	24193	5.843001001457	3
0	24201	5.851537001457	2
0	24227	5.852118346097	3
0	24239	5.860654346097	2
0	24265	5.860955690737	3
0	24273	5.869491690737	2
0	24334	5.878970369633	3
0	24346	5.887506369633	2
0	24372	5.887827714273	3
0	24384	5.896363714273	2
0	24414	5.896905058913	3
0	24435	5.905441058913	2
0	24446	5.906511058913	3
0	24453	5.915047058913	2
0	24479	5.915408403553	3
0	24487	5.923944403553	2
0	24513	5.924365748193	3
0	24521	5.932901748193	2
0	24547	5.933283092833	3
0	24559	5.941819092833	2
0	24655	5.960175116369	3
0	24663	5.968711116369	2
0	24728	5.977909795265	3
0	24744	5.986445795265	2
0	24844	6.005001818801	3
0	24852	6.013537818801	2
0	24956	6.031893842337	3
0	24964	6.040429842337	2
0	25025	6.049768521233	3
0	25033	6.058304521233	2
0	25098	6.068023200129	3
0	25106	6.076559200129	2
0	25171	6.086217879025	3
0	25194	6.094753879025	2
0	25284	6.113958568305	3
0	25296	6.122494568305	2
0	25361	6.131873247201	3
0	25369	6.140409247201	2
0	25395	6.140970591841	3
0	25403	6.149506591841	2
0	25546	6.176659960017	3
0	25558	6.185195960017	2
0	25623	6.194894638913	3
0	25631	6.203430638913	2
0	25657	6.203751983553	3
0	25665	6.212287983553	2
0	25726	6.221686662449	3
0	25738	6.230222662449	2
0	25764	6.230604007089	3
0	25776	6.239140007089	2
0	25802	6.239561351729	3
0	25814	6.248097351729	2
0	25879	6.257596030625	3
0	25891	6.266132030625	2
0	25917	6.266473375265	3
0	25929	6.275009375265	2
0	25955	6.275370719905	3
0	25967	6.283906719905	2
0	26067	6.302202743441	3
0	26087	6.310738743441	2
0	26117	6.311160088081	3
0	26134	6.319696088081	2
0	26144	6.320246088081	3
0	26152	6.328782088081	2
0	26178	6.329183432721	3
0	26190	6.337719432721	2
0	26220	6.338320777361	3
0	26228	6.346856777361	2
0	26328	6.365212800897	3
0	26336	6.373748800897	2
0	26362	6.374190145537	3
0	26378	6.382726145537	2
0	26404	6.383227490177	3
0	26416	6.391763490177	2
0	26442	6.392204834817	3
0	26454	6.400740834817	2
0	26519	6.410019513713	3
0	26527	6.418555513713	2
0	26592	6.428174192609	3
0	26604	6.436710192609	2
0	26739	6.464123560785	3
0	26751	6.472659560785	2
0	26812	6.481958239681	3
0	26824	6.490494239681	2
0	26885	6.500232918577	3
0	26893	6.508768918577	2
0	26993	6.527204942113	3
0	27001	6.535740942113	2
0	27066	6.545339621009	3
0	27074	6.553875621009	2
0	27143	6.563474299905	3
0	27163	6.572010299905	2
0	27259	6.590326323441	3
0	27275	6.598862323441	2
0	27301	6.599323668081	3
0	27317	6.607859668081	2
0	27343	6.608221012721	3
0	27355	6.616757012721	2
0	27533	6.652907725537	3
0	27541	6.661443725537	2
0	27602	6.670822404433	3
0	27610	6.679358404433	2
0	27788	6.715549117249	3
0	27800	6.724085117249	2
0	27826	6.724546461889	3
0	27838	6.733082461889	2
0	27864	6.733383806529	3
0	27876	6.741919806529	2
0	27902	6.742221151169	3
0	27914	6.750757151169	2
0	27940	6.751158495809	3
0	27952	6.759694495809	2
0	27978	6.760035840449	3
0	27986	6.768571840449	2
0	28047	6.778290519345	3
0	28055	6.786826519345	2
0	28120	6.796105198241	3
0	28132	6.804641198241	2
0	28197	6.814399877137	3
0	28205	6.822935877137	2
0	28266	6.832434556033	3
0	28274	6.840970556033	2
0	28417	6.868203924209	3
0	28425	6.876739924209	2
0	28451	6.877421268849	3
0	28459	6.885957268849	2
0	28524	6.895395947745	3
0	28532	6.903931947745	2
0	28558	6.904293292385	3
0	28566	6.912829292385	2
0	28592	6.913150637025	3
0	28604	6.921686637025	2
0	28665	6.931145315921	3
0	28677	6.939681315921	2
0	28742	6.949339994817	3
0	28750	6.957875994817	2
0	28815	6.967594673713	3
0	28834	6.976130673713	2
0	28847	6.977120673713	3
0	28866	6.985656673713	2
0	28894	6.986198018353	3
0	28900	6.994734018353	2
0	29051	7.022127386529	3
0	29066	7.030663386529	2
0	29078	7.031353386529	3
0	29094	7.039889386529	2
0	29120	7.040290731169	3
0	29132	7.048826731169	2
0	29158	7.049528075809	3
0	29170	7.058064075809	2
0	29231	7.067562754705	3
0	29239	7.076098754705	2
0	29312	7.085657433601	3
0	29332	7.094193433601	2
0	29358	7.094634778241	3
0	29370	7.103170778241	2
0	29470	7.121606801777	3
0	29478	7.130142801777	2
0	29504	7.130724146417	3
0	29512	7.139260146417	2
0	29573	7.148438825313	3
0	29581	7.156974825313	2
0	29607	7.157656169953	3
0	29615	7.166192169953	2
0	29676	7.175830848849	3
0	29684	7.184366848849	2
0	29710	7.184748193489	3
0	29722	7.193284193489	2
0	29822	7.211780217025	3
0	29834	7.220316217025	2
0	29973	7.247609585201	3
0	29981	7.256145585201	2
0	30011	7.257046929841	3
0	30028	7.265582929841	2
0	30221	7.310999642657	3
0	30237	7.319535642657	2
0	30263	7.320076987297	3
0	30275	7.328612987297	2
0	30414	7.355906355473	3
0	30422	7.364442355473	2
0	30573	7.391835723649	3
0	30581	7.400371723649	2
0	30642	7.410070402545	3
0	30650	7.418606402545	2
0	30711	7.428045081441	3
0	30727	7.436581081441	2
0	30866	7.463934449617	3
0	30874	7.472470449617	2
0	30900	7.473031794257	3
0	30908	7.481567794257	2
0	30981	7.491086473153	3
0	30989	7.499622473153	2
0	31015	7.500063817793	3
0	31027	7.508599817793	2
0	31100	7.518338496689	3
0	31108	7.526874496689	2
0	31247	7.554227864865	3
0	31255	7.562763864865	2
0	31316	7.572282543761	3
0	31324	7.580818543761	2
0	31350	7.581279888401	3
0	31362	7.589815888401	2
0	31423	7.599154567297	3
0	31439	7.607690567297	2
0	31500	7.617269246193	3
0	31508	7.625805246193	2
0	31604	7.644361269729	3
0	31616	7.652897269729	2
0	31720	7.671493293265	3
0	31728	7.680029293265	2
0	31824	7.698585316801	3
0	31840	7.707121316801	2
0	31901	7.716739995697	3
0	31909	7.725275995697	2
0	31935	7.725697340337	3
0	31943	7.734233340337	2
0	32008	7.743732019233	3
0	32016	7.752268019233	2
0	32046	7.752849363873	3
0	32079	7.761385363873	2
0	32090	7.762295363873	3
0	32101	7.770831363873	2
0	32129	7.771512708513	3
0	32135	7.780048708513	2
0	32165	7.780510053153	3
0	32182	7.789046053153	2
0	32194	7.790536053153	3
0	32202	7.799072053153	2
0	32228	7.799873397793	3
0	32238	7.808409397793	2
0	32299	7.818108076689	3
0	32307	7.826644076689	2
0	32333	7.827145421329	3
0	32341	7.835681421329	2
0	32441	7.853857444865	3
0	32449	7.862393444865	2
0	32580	7.889326813041	3
0	32596	7.897862813041	2
0	32661	7.907441491937	3
0	32669	7.915977491937	2
0	32695	7.916298836577	3
0	32703	7.924834836577	2
0	32772	7.934393515473	3
0	32788	7.942929515473	2
0	32849	7.952448194369	3
0	32857	7.960984194369	2
0	32953	7.979320217905	3
0	32965	7.987856217905	2
0	32991	7.988497562545	3
0	33003	7.997033562545	2
0	33029	7.997354907185	3
0	33037	8.005890907185	2
0	33110	8.015209586081	3
0	33122	8.023745586081	2
0	33148	8.024126930721	3
0	33160	8.032662930721	2
0	33233	8.042181609617	3
0	33241	8.050717609617	2
0	33302	8.060176288513	3
0	33310	8.068712288513	2
0	33375	8.078350967409	3
0	33391	8.086886967409	2
0	33456	8.096205646305	3
0	33464	8.104741646305	2
0	33572	8.123337669841	3
0	33584	8.131873669841	2
0	33657	8.141112348737	3
0	33665	8.149648348737	2
0	33730	8.159047027633	3
0	33750	8.167583027633	2
0	33776	8.168024372273	3
0	33784	8.176560372273	2
0	33845	8.185999051169	3
0	33857	8.194535051169	2
0	33918	8.204113730065	3
0	33926	8.212649730065	2
0	33987	8.222288408961	3
0	33995	8.230824408961	2
0	34095	8.249400432497	3
0	34107	8.257936432497	2
0	34133	8.258377777137	3
0	34145	8.266913777137	2
0	34171	8.267375121777	3
0	34187	8.275911121777	2
0	34287	8.294227145313	3
0	34299	8.302763145313	2
0	34407	8.321359168849	3
0	34415	8.329895168849	2
0	34441	8.330336513489	3
0	34453	8.338872513489	2
0	34514	8.348131192385	3
0	34522	8.356667192385	2
0	34583	8.366225871281	3
0	34595	8.374761871281	2
0	34660	8.384240550177	3
0	34668	8.392776550177	2
0	34768	8.411372573713	3
0	34788	8.419908573713	2
0	34927	8.447201941889	3
0	34942	8.455737941889	2
0	34956	8.457147941889	3
0	34962	8.465683941889	2
0	35027	8.475342620785	3
0	35035	8.483878620785	2
0	35139	8.502094644321	3
0	35151	8.510630644321	2
0	35212	8.520169323217	3
0	35232	8.528705323217	2
0	35293	8.538304002113	3
0	35305	8.546840002113	2
0	35331	8.547381346753	3
0	35343	8.555917346753	2
0	35443	8.574413370289	3
0	35455	8.582949370289	2
0	35481	8.583510714929	3
0	35489	8.592046714929	2
0	35562	8.601545393825	3
0	35570	8.610081393825	2
0	35631	8.619700072721	3
0	35643	8.628236072721	2
0	35669	8.628577417361	3
0	35685	8.637113417361	2
0	35711	8.637574762001	3
0	35719	8.646110762001	2
0	35745	8.646492106641	3
0	35753	8.655028106641	2
0	35857	8.673604130177	3
0	35869	8.682140130177	2
0	36000	8.709533498353	3
0	36008	8.718069498353	2
0	36104	8.736385521889	3
0	36120	8.744921521889	2
0	36185	8.754280200785	3
0	36197	8.762816200785	2
0	36305	8.781332224321	3
0	36320	8.789868224321	2
0	36336	8.790558224321	3
0	36348	8.799094224321	2
0	36417	8.808372903217	3
0	36425	8.816908903217	2
0	36451	8.817250247857	3
0	36463	8.825786247857	2
0	36532	8.835424926753	3
0	36540	8.843960926753	2
0	36566	8.844682271393	3
0	36574	8.853218271393	2
0	36600	8.853599616033	3
0	36612	8.862135616033	2
0	36708	8.880331639569	3
0	36716	8.888867639569	2
0	36777	8.898446318465	3
0	36789	8.906982318465	2
0	36889	8.925578342001	3
0	36901	8.934114342001	2
0	36966	8.943633020897	3
0	36978	8.952169020897	2
0	37039	8.961607699793	3
0	37047	8.970143699793	2
0	37112	8.979662378689	3
0	37120	8.988198378689	2
0	37181	8.997817057585	3
0	37193	9.006353057585	2
0	37219	9.006654402225	3
0	37227	9.015190402225	2
0	37288	9.024929081121	3
0	37296	9.033465081121	2
0	37392	9.051581104657	3
0	37400	9.060117104657	2
0	37426	9.060438449297	3
0	37438	9.068974449297	2
0	37499	9.078673128193	3
0	37511	9.087209128193	2
0	37611	9.105705151729	3
0	37630	9.114241151729	2
0	37679	9.124268496369	3
0	37685	9.132804496369	2
0	37754	9.142543175265	3
0	37769	9.151079175265	2
0	37781	9.151669175265	3
0	37789	9.160205175265	2
0	37819	9.161046519905	3
0	37831	9.169582519905	2
0	37943	9.187998543441	3
0	37951	9.196534543441	2
0	37977	9.197075888081	3
0	37985	9.205611888081	2
0	38085	9.223927911617	3
0	38093	9.232463911617	2
0	38189	9.250759935153	3
0	38197	9.259295935153	2
0	38223	9.259857279793	3
0	38239	9.268393279793	2
0	38269	9.268874624433	3
0	38294	9.277410624433	2
0	38304	9.277760624433	3
0	38316	9.286296624433	2
0	38342	9.286857969073	3
0	38350	9.295393969073	2
0	38376	9.295915313713	3
0	38388	9.304451313713	2
0	38414	9.304892658353	3
0	38422	9.313428658353	2
0	38483	9.323027337249	3
0	38491	9.331563337249	2
0	38517	9.332204681889	3
0	38533	9.340740681889	2
0	38594	9.350259360785	3
0	38610	9.358795360785	2
0	38710	9.377331384321	3
0	38726	9.385867384321	2
0	38787	9.395566063217	3
0	38795	9.404102063217	2
0	38860	9.413460742113	3
0	38876	9.421996742113	2
0	38949	9.431355421009	3
0	38957	9.439891421009	2
0	39022	9.449530099905	3
0	39034	9.458066099905	2
0	39060	9.458747444545	3
0	39072	9.467283444545	2
0	39141	9.476602123441	3
0	39149	9.485138123441	2
0	39214	9.494736802337	3
0	39222	9.503272802337	2
0	39283	9.512671481233	3
0	39291	9.521207481233	2
0	39317	9.521808825873	3
0	39325	9.530344825873	2
0	39429	9.548620849409	3
0	39445	9.557156849409	2
0	39471	9.557518194049	3
0	39483	9.566054194049	2
0	39509	9.566675538689	3
0	39521	9.575211538689	2
0	39641	9.593767562225	3
0	39653	9.602303562225	2
0	39679	9.602924906865	3
0	39687	9.611460906865	2
0	39713	9.611822251505	3
0	39725	9.620358251505	2
0	39798	9.629616930401	3
0	39806	9.638152930401	2
0	39832	9.638494275041	3
0	39844	9.647030275041	2
0	39905	9.656608953937	3
0	39917	9.665144953937	2
0	39943	9.665706298577	3
0	39959	9.674242298577	2
0	40063	9.692558322113	3
0	40075	9.701094322113	2
0	40101	9.701595666753	3
0	40109	9.710131666753	2
0	40170	9.719870345649	3
0	40178	9.728406345649	2
0	40239	9.737765024545	3
0	40251	9.746301024545	2
0	40351	9.764877048081	3
0	40363	9.773413048081	2
0	40393	9.774154392721	3
0	40410	9.782690392721	2
0	40459	9.792377726977	3
0	40467	9.800913726977	2
0	40493	9.801275071617	3
0	40509	9.809811071617	2
0	40574	9.819449750513	3
0	40582	9.827985750513	2
0	40643	9.837364429409	3
0	40659	9.845900429409	2
0	40771	9.864396452945	3
0	40783	9.872932452945	2
0	40809	9.873353797585	3
0	40817	9.881889797585	2
0	40843	9.882211142225	3
0	40855	9.890747142225	2
0	40924	9.900445821121	3
0	40936	9.908981821121	2
0	41036	9.927537844657	3
0	41044	9.936073844657	2
0	41070	9.936435189297	3
0	41078	9.944971189297	2
0	41143	9.954469868193	3
0	41155	9.963005868193	2
0	41259	9.981521891729	3
0	41271	9.990057891729	2
0	41301	9.990579236369	3
0	41313	9.999115236369	2
0	41374	10.008293915265	3
0	41382	10.016829915265	2
0	41408	10.017231259905	3
0	41416	10.025767259905	2
0	41485	10.035245938801	3
0	41493	10.043781938801	2
0	41558	10.053260617697	3
0	41566	10.061796617697	2
0	41736	10.098047330513	3
0	41748	10.106583330513	2
0	41809	10.116102009409	3
0	41817	10.124638009409	2
0	41921	10.143214032945	3
0	41945	10.151750032945	2
0	42045	10.170066056481	3
0	42061	10.178602056481	2
0	42126	10.187980735377	3
0	42138	10.196516735377	2
0	42164	10.196858080017	3
0	42176	10.205394080017	2
0	42284	10.223730103553	3
0	42292	10.232266103553	2
0	42318	10.232687448193	3
0	42326	10.241223448193	2
0	42352	10.241964792833	3
0	42360	10.250500792833	2
0	42464	10.268716816369	3
0	42472	10.277252816369	2
0	42498	10.277594161009	3
0	42514	10.286130161009	2
0	42540	10.286511505649	3
0	42552	10.295047505649	2
0	42648	10.313563529185	3
0	42664	10.322099529185	2
0	42690	10.322460873825	3
0	42702	10.330996873825	2
0	42771	10.340635552721	3
0	42783	10.349171552721	2
0	42809	10.349612897361	3
0	42821	10.358148897361	2
0	42882	10.367867576257	3
0	42890	10.376403576257	2
0	42916	10.376764920897	3
0	42924	10.385300920897	2
0	43028	10.403756944433	3
0	43036	10.412292944433	2
0	43062	10.412614289073	3
0	43070	10.421150289073	2
0	43135	10.430508967969	3
0	43143	10.439044967969	2
0	43251	10.457540991505	3
0	43259	10.466076991505	2
0	43328	10.475795670401	3
0	43340	10.484331670401	2
0	43366	10.484853015041	3
0	43382	10.493389015041	2
0	43490	10.511565038577	3
0	43498	10.520101038577	2
0	43563	10.529779717473	3
0	43575	10.538315717473	2
0	43601	10.538697062113	3
0	43609	10.547233062113	2
0	43678	10.556711741009	3
0	43690	10.565247741009	2
0	43716	10.565709085649	3
0	43724	10.574245085649	2
0	43789	10.583903764545	3
0	43797	10.592439764545	2
0	43940	10.619873132721	3
0	43948	10.628409132721	2
0	44009	10.637867811617	3
0	44017	10.646403811617	2
0	44043	10.646845156257	3
0	44051	10.655381156257	2
0	44151	10.673777179793	3
0	44159	10.682313179793	2
0	44185	10.682774524433	3
0	44193	10.691310524433	2
0	44219	10.691711869073	3
0	44227	10.700247869073	2
0	44253	10.700649213713	3
0	44265	10.709185213713	2
0	44400	10.736558581889	3
0	44408	10.745094581889	2
0	44434	10.745415926529	3
0	44442	10.753951926529	2
0	44468	10.754293271169	3
0	44476	10.762829271169	2
0	44576	10.781405294705	3
0	44588	10.789941294705	2
0	44696	10.808317318241	3
0	44704	10.816853318241	2
0	44773	10.826351997137	3
0	44785	10.834887997137	2
0	44811	10.835309341777	3
0	44819	10.843845341777	2
0	44884	10.853164020673	3
0	44892	10.861700020673	2
0	44953	10.871298699569	3
0	44961	10.879834699569	2
0	44987	10.880256044209	3
0	44995	10.888792044209	2
0	45060	10.898090723105	3
0	45072	10.906626723105	2
0	45098	10.907028067745	3
0	45106	10.915564067745	2
0	45249	10.942977435921	3
0	45265	10.951513435921	2
0	45291	10.951974780561	3
0	45299	10.960510780561	2
0	45325	10.960872125201	3
0	45333	10.969408125201	2
0	45394	10.978726804097	3
0	45406	10.987262804097	2
0	45467	10.997021482993	3
0	45479	11.005557482993	2
0	45544	11.014876161889	3
0	45552	11.023412161889	2
0	45617	11.033030840785	3
0	45629	11.041566840785	2
0	45737	11.060102864321	3
0	45749	11.068638864321	2
0	45814	11.078277543217	3
0	45822	11.086813543217	2
0	45848	11.087234887857	3
0	45860	11.095770887857	2
0	45925	11.105369566753	3
0	45933	11.113905566753	2
0	45959	11.114426911393	3
0	45967	11.122962911393	2
0	45993	11.123364256033	3
0	46009	11.131900256033	2
0	46070	11.141498934929	3
0	46082	11.150034934929	2
0	46252	11.186245647745	3
0	46260	11.194781647745	2
0	46286	11.195222992385	3
0	46302	11.203758992385	2
0	46414	11.222335015921	3
0	46426	11.230871015921	2
0	46452	11.231392360561	3
0	46464	11.239928360561	2
0	46541	11.249687039457	3
0	46553	11.258223039457	2
0	46614	11.267661718353	3
0	46630	11.276197718353	2
0	46691	11.285476397249	3
0	46703	11.294012397249	2
0	46729	11.294393741889	3
0	46741	11.302929741889	2
0	46837	11.321285765425	3
0	46853	11.329821765425	2
0	46879	11.330283110065	3
0	46895	11.338819110065	2
0	46956	11.348457788961	3
0	46976	11.356993788961	2
0	47088	11.375509812497	3
0	47096	11.384045812497	2
0	47169	11.393744491393	3
0	47188	11.402280491393	2
0	47270	11.421565180673	3
0	47278	11.430101180673	2
0	47339	11.439659859569	3
0	47355	11.448195859569	2
0	47416	11.457454538465	3
0	47428	11.465990538465	2
0	47454	11.466371883105	3
0	47462	11.474907883105	2
0	47687	11.519935940561	3
0	47695	11.528471940561	2
0	47721	11.528873285201	3
0	47733	11.537409285201	2
0	47907	11.573579998017	3
0	47915	11.582115998017	2
0	48019	11.600432021553	3
0	48027	11.608968021553	2
0	48053	11.609509366193	3
0	48065	11.618045366193	2
0	48126	11.627744045089	3
0	48134	11.636280045089	2
0	48203	11.645618723985	3
0	48215	11.654154723985	2
0	48276	11.663533402881	3
0	48288	11.672069402881	2
0	48353	11.681528081777	3
0	48361	11.690064081777	2
0	48387	11.690465426417	3
0	48395	11.699001426417	2
0	48495	11.717257449953	3
0	48503	11.725793449953	2
0	48599	11.744069473489	3
0	48611	11.752605473489	2
0	48637	11.753126818129	3
0	48645	11.761662818129	2
0	48741	11.779878841665	3
0	48749	11.788414841665	2
0	48826	11.797833520561	3
0	48842	11.806369520561	2
0	48942	11.824545544097	3
0	48950	11.833081544097	2
0	48976	11.833582888737	3
0	48984	11.842118888737	2
0	49053	11.851497567633	3
0	49068	11.860033567633	2
0	49115	11.869840912273	3
0	49127	11.878376912273	2
0	49196	11.887655591169	3
0	49208	11.896191591169	2
0	49277	11.905850270065	3
0	49285	11.914386270065	2
0	49420	11.941799638241	3
0	49436	11.950335638241	2
0	49462	11.950656982881	3
0	49470	11.959192982881	2
0	49531	11.968851661777	3
0	49539	11.977387661777	2
0	49565	11.977809006417	3
0	49585	11.986345006417	2
0	49650	11.996103685313	3
0	49662	12.004639685313	2
0	49766	12.023035708849	3
0	49778	12.031571708849	2
0	49804	12.031993053489	3
0	49816	12.040529053489	2
0	49842	12.041010398129	3
0	49850	12.049546398129	2
0	49915	12.058885077025	3
0	49923	12.067421077025	2
0	49984	12.077179755921	3
0	49992	12.085715755921	2
0	50092	12.104291779457	3
0	50104	12.112827779457	2
0	50130	12.113249124097	3
0	50138	12.121785124097	2
0	50203	12.131383802993	3
0	50215	12.139919802993	2
0	50280	12.149478481889	3
0	50288	12.158014481889	2
0	50314	12.158395826529	3
0	50322	12.166931826529	2
0	50426	12.185427850065	3
0	50438	12.193963850065	2
0	50538	12.212479873601	3
0	50550	12.221015873601	2
0	50681	12.248429241777	3
0	50697	12.256965241777	2
0	50723	12.257566586417	3
0	50731	12.266102586417	2
0	50878	12.293415954593	3
0	50886	12.301951954593	2
0	50912	12.302673299233	3
0	50924	12.311209299233	2
0	50985	12.320547978129	3
0	50993	12.329083978129	2
0	51128	12.356477346305	3
0	51148	12.365013346305	2
0	51178	12.365494690945	3
0	51190	12.374030690945	2
0	51255	12.383789369841	3
0	51267	12.392325369841	2
0	51336	12.401604048737	3
0	51348	12.410140048737	2
0	51374	12.410661393377	3
0	51390	12.419197393377	2
0	51463	12.428556072273	3
0	51475	12.437092072273	2
0	51501	12.437713416913	3
0	51509	12.446249416913	2
0	51535	12.446590761553	3
0	51555	12.455126761553	2
0	51624	12.464565440449	3
0	51640	12.473101440449	2
0	51666	12.473422785089	3
0	51682	12.481958785089	2
0	51751	12.491717463985	3
0	51759	12.500253463985	2
0	51824	12.509572142881	3
0	51832	12.518108142881	2
0	51936	12.536664166417	3
0	51955	12.545200166417	2
0	52002	12.555127511057	3
0	52010	12.563663511057	2
0	52071	12.573062189953	3
0	52079	12.581598189953	2
0	52183	12.599814213489	3
0	52195	12.608350213489	2
0	52221	12.608891558129	3
0	52241	12.617427558129	2
0	52306	12.626906237025	3
0	52322	12.635442237025	2
0	52383	12.645100915921	3
0	52391	12.653636915921	2
0	52456	12.663015594817	3
0	52464	12.671551594817	2
0	52490	12.671992939457	3
0	52498	12.680528939457	2
0	52524	12.681050284097	3
0	52532	12.689586284097	2
0	52558	12.690027628737	3
0	52566	12.698563628737	2
0	52631	12.707762307633	3
0	52639	12.716298307633	2
0	52704	12.725876986529	3
0	52712	12.734412986529	2
0	52773	12.743771665425	3
0	52785	12.752307665425	2
0	52811	12.752609010065	3
0	52819	12.761145010065	2
0	52923	12.779641033601	3
0	52931	12.788177033601	2
0	52996	12.797835712497	3
0	53004	12.806371712497	2
0	53108	12.824507736033	3
0	53116	12.833043736033	2
0	53216	12.851479759569	3
0	53236	12.860015759569	2
0	53340	12.878491783105	3
0	53352	12.887027783105	2
0	53378	12.887369127745	3
0	53390	12.895905127745	2
0	53416	12.896326472385	3
0	53424	12.904862472385	2
0	53450	12.905443817025	3
0	53462	12.913979817025	2
0	53558	12.932315840561	3
0	53566	12.940851840561	2
0	53592	12.941433185201	3
0	53604	12.949969185201	2
0	53634	12.950370529841	3
0	53655	12.958906529841	2
0	53669	12.959776529841	3
0	53685	12.968312529841	2
0	53711	12.968793874481	3
0	53723	12.977329874481	2
0	53784	12.986768553377	3
0	53796	12.995304553377	2
0	53892	13.013660576913	3
0	53900	13.022196576913	2
0	53961	13.031715255809	3
0	53973	13.040251255809	2
0	54042	13.049569934705	3
0	54054	13.058105934705	2
0	54115	13.067344613601	3
0	54123	13.075880613601	2
0	54266	13.102853981777	3
0	54274	13.111389981777	2
0	54335	13.121008660673	3
0	54347	13.129544660673	2
0	54408	13.138783339569	3
0	54424	13.147319339569	2
0	54450	13.147680684209	3
0	54462	13.156216684209	2
0	54523	13.165615363105	3
0	54535	13.174151363105	2
0	54561	13.174652707745	3
0	54573	13.183188707745	2
0	54599	13.183690052385	3
0	54607	13.192226052385	2
0	54676	13.201424731281	3
0	54688	13.209960731281	2
0	54718	13.210402075921	3
0	54726	13.218938075921	2
0	54791	13.228436754817	3
0	54806	13.236972754817	2
0	54900	13.256037444097	3
0	54908	13.264573444097	2
0	55055	13.292006812273	3
0	55067	13.300542812273	2
0	55093	13.301084156913	3
0	55101	13.309620156913	2
0	55166	13.318938835809	3
0	55174	13.327474835809	2
0	55200	13.327796180449	3
0	55216	13.336332180449	2
0	55242	13.336973525089	3
0	55250	13.345509525089	2
0	55346	13.364085548625	3
0	55362	13.372621548625	2
0	55388	13.373022893265	3
0	55396	13.381558893265	2
0	55461	13.390877572161	3
0	55469	13.399413572161	2
0	55534	13.408992251057	3
0	55542	13.417528251057	2
0	55568	13.418109595697	3
0	55584	13.426645595697	2
0	55610	13.427046940337	3
0	55618	13.435582940337	2
0	55769	13.462976308513	3
0	55788	13.471512308513	2
0	55800	13.472182308513	3
0	55812	13.480718308513	2
0	55838	13.481139653153	3
0	55846	13.489675653153	2
0	55872	13.490196997793	3
0	55884	13.498732997793	2
0	55910	13.499394342433	3
0	55922	13.507930342433	2
0	55948	13.508351687073	3
0	55956	13.516887687073	2
0	56021	13.526146365969	3
0	56029	13.534682365969	2
0	56129	13.553278389505	3
0	56137	13.561814389505	2
0	56241	13.580390413041	3
0	56249	13.588926413041	2
0	56310	13.598545091937	3
0	56318	13.607081091937	2
0	56430	13.625577115473	3
0	56442	13.634113115473	2
0	56503	13.643491794369	3
0	56515	13.652027794369	2
0	56541	13.652629139009	3
0	56553	13.661165139009	2
0	56626	13.670543817905	3
0	56638	13.679079817905	2
0	56664	13.679481162545	3
0	56680	13.688017162545	2
0	56741	13.697555841441	3
0	56753	13.706091841441	2
0	56779	13.706653186081	3
0	56787	13.715189186081	2
0	56895	13.733325209617	3
0	56911	13.741861209617	2
0	56972	13.751459888513	3
0	56992	13.759995888513	2
0	57053	13.769554567409	3
0	57069	13.778090567409	2
0	57130	13.787809246305	3
0	57138	13.796345246305	2
0	57164	13.796726590945	3
0	57180	13.805262590945	2
0	57241	13.814801269841	3
0	57265	13.823337269841	2
0	57291	13.823778614481	3
0	57303	13.832314614481	2
0	57407	13.850470638017	3
0	57415	13.859006638017	2
0	57441	13.859767982657	3
0	57457	13.868303982657	2
0	57526	13.877842661553	3
0	57541	13.886378661553	2
0	57588	13.896246006193	3
0	57596	13.904782006193	2
0	57727	13.932155374369	3
0	57735	13.940691374369	2
0	57839	13.959127397905	3
0	57851	13.967663397905	2
0	57877	13.968024742545	3
0	57885	13.976560742545	2
0	57911	13.977142087185	3
0	57923	13.985678087185	2
0	57984	13.995416766081	3
0	57996	14.003952766081	2
0	58096	14.022208789617	3
0	58104	14.030744789617	2
0	58130	14.031126134257	3
0	58146	14.039662134257	2
0	58172	14.040023478897	3
0	58180	14.048559478897	2
0	58206	14.049000823537	3
0	58214	14.057536823537	2
0	58310	14.075752847073	3
0	58322	14.084288847073	2
0	58348	14.084590191713	3
0	58356	14.093126191713	2
0	58382	14.093627536353	3
0	58394	14.102163536353	2
0	58420	14.102464880993	3
0	58428	14.111000880993	2
0	58454	14.111302225633	3
0	58462	14.119838225633	2
0	58488	14.120139570273	3
0	58496	14.128675570273	2
0	58600	14.147051593809	3
0	58608	14.155587593809	2
0	58634	14.156248938449	3
0	58642	14.164784938449	2
0	58672	14.165286283089	3
0	58689	14.173822283089	2
0	58820	14.201784306625	3
0	58828	14.210320306625	2
0	58889	14.219918985521	3
0	58901	14.228454985521	2
0	58997	14.246971009057	3
0	59005	14.255507009057	2
0	59078	14.265045687953	3
0	59090	14.273581687953	2
0	59155	14.283260366849	3
0	59167	14.291796366849	2
0	59193	14.292337711489	3
0	59205	14.300873711489	2
0	59270	14.310572390385	3
0	59278	14.319108390385	2
0	59304	14.319449735025	3
0	59316	14.327985735025	2
0	59432	14.346381758561	3
0	59444	14.354917758561	2
0	59548	14.373473782097	3
0	59556	14.382009782097	2
0	59582	14.382411126737	3
0	59590	14.390947126737	2
0	59616	14.391288471377	3
0	59624	14.399824471377	2
0	59650	14.400185816017	3
0	59658	14.408721816017	2
0	59762	14.426917839553	3
0	59770	14.435453839553	2
0	59796	14.435855184193	3
0	59812	14.444391184193	2
0	59838	14.444712528833	3
0	59850	14.453248528833	2
0	59915	14.462907207729	3
0	59923	14.471443207729	2
0	59949	14.471764552369	3
0	59961	14.480300552369	2
0	60061	14.498536575905	3
0	60073	14.507072575905	2
0	60138	14.516591254801	3
0	60157	14.525127254801	2
0	60239	14.544131944081	3
0	60247	14.552667944081	2
0	60308	14.562126622977	3
0	60320	14.570662622977	2
0	60502	14.606933335793	3
0	60510	14.615469335793	2
0	60575	14.625028014689	3
0	60587	14.633564014689	2
0	60613	14.634065359329	3
0	60629	14.642601359329	2
0	60690	14.652020038225	3
0	60702	14.660556038225	2
0	60814	14.678992061761	3
0	60826	14.687528061761	2
0	60891	14.697066740657	3
0	60899	14.705602740657	2
0	60925	14.705924085297	3
0	60933	14.714460085297	2
0	61006	14.724178764193	3
0	61014	14.732714764193	2
0	61118	14.751090787729	3
0	61126	14.759626787729	2
0	61152	14.760028132369	3
0	61168	14.768564132369	2
0	61280	14.787140155905	3
0	61292	14.795676155905	2
0	61318	14.796197500545	3
0	61326	14.804733500545	2
0	61430	14.823129524081	3
0	61438	14.831665524081	2
0	61464	14.831966868721	3
0	61480	14.840502868721	2
0	61506	14.840804213361	3
0	61514	14.849340213361	2
0	61583	14.858618892257	3
0	61599	14.867154892257	2
0	61672	14.876453571153	3
0	61691	14.884989571153	2
0	61738	14.894576915793	3
0	61746	14.903112915793	2
0	61772	14.903454260433	3
0	61784	14.911990260433	2
0	61888	14.930586283969	3
0	61900	14.939122283969	2
0	61926	14.939443628609	3
0	61934	14.947979628609	2
0	61960	14.948480973249	3
0	61972	14.957016973249	2
0	62033	14.966455652145	3
0	62041	14.974991652145	2
0	62067	14.975552996785	3
0	62075	14.984088996785	2
0	62222	15.011322364961	3
0	62234	15.019858364961	2
0	62299	15.029377043857	3
0	62307	15.037913043857	2
0	62372	15.047271722753	3
0	62384	15.055807722753	2
0	62410	15.056229067393	3
0	62426	15.064765067393	2
0	62452	15.065146412033	3
0	62468	15.073682412033	2
0	62494	15.073983756673	3
0	62502	15.082519756673	2
0	62528	15.082821101313	3
0	62536	15.091357101313	2
0	62601	15.100655780209	3
0	62616	15.109191780209	2
0	62706	15.127956469489	3
0	62714	15.136492469489	2
0	62740	15.137133814129	3
0	62752	15.145669814129	2
0	62813	15.154968493025	3
0	62821	15.163504493025	2
0	62851	15.164025837665	3
0	62868	15.172561837665	2
0	62878	15.172971837665	3
0	62894	15.181507837665	2
0	62920	15.182169182305	3
0	62928	15.190705182305	2
0	62954	15.191206526945	3
0	62966	15.199742526945	2
0	62992	15.200583871585	3
0	63000	15.209119871585	2
0	63061	15.218378550481	3
0	63069	15.226914550481	2
0	63095	15.227275895121	3
0	63107	15.235811895121	2
0	63172	15.245550574017	3
0	63180	15.254086574017	2
0	63245	15.263785252913	3
0	63257	15.272321252913	2
0	63404	15.299634621089	3
0	63412	15.308170621089	2
0	63473	15.317469299985	3
0	63485	15.326005299985	2
0	63511	15.326586644625	3
0	63519	15.335122644625	2
0	63580	15.344641323521	3
0	63596	15.353177323521	2
0	63661	15.362876002417	3
0	63673	15.371412002417	2
0	63738	15.380830681313	3
0	63750	15.389366681313	2
0	63850	15.407802704849	3
0	63862	15.416338704849	2
0	63888	15.416740049489	3
0	63896	15.425276049489	2
0	63957	15.434934728385	3
0	63965	15.443470728385	2
0	64077	15.462066751921	3
0	64085	15.470602751921	2
0	64154	15.480181430817	3
0	64162	15.488717430817	2
0	64188	15.489078775457	3
0	64196	15.497614775457	2
0	64257	15.507033454353	3
0	64265	15.515569454353	2
0	64373	15.533885477889	3
0	64381	15.542421477889	2
0	64442	15.551660156785	3
0	64458	15.560196156785	2
0	64484	15.560537501425	3
0	64492	15.569073501425	2
0	64518	15.569394846065	3
0	64530	15.577930846065	2
0	64560	15.578332190705	3
0	64577	15.586868190705	2
0	64661	15.605812869601	3
0	64669	15.614348869601	2
0	64730	15.624107548497	3
0	64738	15.632643548497	2
0	64807	15.642082227393	3
0	64815	15.650618227393	2
0	64915	15.669214250929	3
0	64927	15.677750250929	2
0	64953	15.678151595569	3
0	64965	15.686687595569	2
0	65112	15.714040963745	3
0	65124	15.722576963745	2
0	65150	15.722938308385	3
0	65162	15.731474308385	2
0	65231	15.740992987281	3
0	65246	15.749528987281	2
0	65293	15.759296331921	3
0	65301	15.767832331921	2
0	65370	15.777211010817	3
0	65386	15.785747010817	2
0	65451	15.795365689713	3
0	65470	15.803901689713	2
0	65484	15.805171689713	3
0	65494	15.813707689713	2
0	65522	15.814129034353	3
0	65528	15.822665034353	2
0	65667	15.850098402529	3
0	65679	15.858634402529	2
0	65775	15.877070426065	3
0	65783	15.885606426065	2
0	65809	15.886047770705	3
0	65829	15.894583770705	2
0	65859	15.895045115345	3
0	65876	15.903581115345	2
0	65886	15.904511115345	3
0	65894	15.913047115345	2
0	65926	15.913948459985	3
0	65932	15.922484459985	2
0	65958	15.922845804625	3
0	65966	15.931381804625	2
0	66027	15.940660483521	3
0	66035	15.949196483521	2
0	66061	15.949717828161	3
0	66073	15.958253828161	2
0	66134	15.967752507057	3
0	66146	15.976288507057	2
0	66254	15.994744530593	3
0	66266	16.003280530593	2
0	66292	16.003781875233	3
0	66300	16.012317875233	2
0	66396	16.030713898769	3
0	66404	16.039249898769	2
0	66508	16.057845922305	3
0	66520	16.066381922305	2
0	66620	16.084797945841	3
0	66628	16.093333945841	2
0	66697	16.102812624737	3
0	66716	16.111348624737	2
0	66767	16.120935969377	3
0	66779	16.129471969377	2
0	66883	16.147767992913	3
0	66895	16.156303992913	2
0	66921	16.156685337553	3
0	66929	16.165221337553	2
0	66990	16.174520016449	3
0	66998	16.183056016449	2
0	67059	16.192494695345	3
0	67071	16.201030695345	2
0	67097	16.201432039985	3
0	67105	16.209968039985	2
0	67131	16.210389384625	3
0	67139	16.218925384625	2
0	67212	16.228444063521	3
0	67231	16.236980063521	2
0	67245	16.238330063521	3
0	67251	16.246866063521	2
0	67312	16.256344742417	3
0	67320	16.264880742417	2
0	67420	16.283376765953	3
0	67428	16.291912765953	2
0	67489	16.301411444849	3
0	67501	16.309947444849	2
0	67562	16.319246123745	3
0	67578	16.327782123745	2
0	67639	16.337540802641	3
0	67651	16.346076802641	2
0	67677	16.346518147281	3
0	67685	16.355054147281	2
0	67711	16.355435491921	3
0	67719	16.363971491921	2
0	67784	16.373430170817	3
0	67792	16.381966170817	2
0	67818	16.382387515457	3
0	67826	16.390923515457	2
0	67852	16.391304860097	3
0	67860	16.399840860097	2
0	67925	16.409299538993	3
0	67937	16.417835538993	2
0	67963	16.418416883633	3
0	67979	16.426952883633	2
0	68075	16.445408907169	3
0	68087	16.453944907169	2
0	68152	16.463483586065	3
0	68164	16.472019586065	2
0	68229	16.481578264961	3
0	68241	16.490114264961	2
0	68310	16.499812943857	3
0	68318	16.508348943857	2
0	68383	16.517947622753	3
0	68391	16.526483622753	2
0	68452	16.536042301649	3
0	68460	16.544578301649	2
0	68533	16.554016980545	3
0	68545	16.562552980545	2
0	68571	16.562894325185	3
0	68579	16.571430325185	2
0	68691	16.589826348721	3
0	68703	16.598362348721	2
0	68733	16.598963693361	3
0	68750	16.607499693361	2
0	68760	16.607969693361	3
0	68768	16.616505693361	2
0	68794	16.617167038001	3
0	68810	16.625703038001	2
0	68836	16.626224382641	3
0	68848	16.634760382641	2
0	68948	16.653236406177	3
0	68964	16.661772406177	2
0	69033	16.671351085073	3
0	69041	16.679887085073	2
0	69071	16.680288429713	3
0	69096	16.688824429713	2
0	69219	16.716366453249	3
0	69231	16.724902453249	2
0	69292	16.734341132145	3
0	69308	16.742877132145	2
0	69373	16.752135811041	3
0	69389	16.760671811041	2
0	69415	16.761113155681	3
0	69427	16.769649155681	2
0	69453	16.769990500321	3
0	69465	16.778526500321	2
0	69491	16.778967844961	3
0	69499	16.787503844961	2
0	69564	16.796842523857	3
0	69572	16.805378523857	2
0	69598	16.805999868497	3
0	69606	16.814535868497	2
0	69749	16.841849236673	3
0	69757	16.850385236673	2
0	69783	16.850786581313	3
0	69791	16.859322581313	2
0	69817	16.859783925953	3
0	69829	16.868319925953	2
0	69937	16.886875949489	3
0	69949	16.895411949489	2
0	70022	16.904890628385	3
0	70030	16.913426628385	2
0	70091	16.923105307281	3
0	70107	16.931641307281	2
0	70258	16.958914675457	3
0	70277	16.967450675457	2
0	70289	16.968340675457	3
0	70305	16.976876675457	2
0	70331	16.977298020097	3
0	70343	16.985834020097	2
0	70373	16.986555364737	3
0	70402	16.995091364737	2
0	70414	16.996261364737	3
0	70424	17.004797364737	2
0	70452	17.005118709377	3
0	70466	17.013654709377	2
0	70535	17.022973388273	3
0	70543	17.031509388273	2
0	70604	17.041148067169	3
0	70616	17.049684067169	2
0	70677	17.059022746065	3
0	70689	17.067558746065	2
0	70754	17.077257424961	3
0	70762	17.085793424961	2
0	70788	17.086114769601	3
0	70796	17.094650769601	2
0	70822	17.094952114241	3
0	70834	17.103488114241	2
0	70903	17.112746793137	3
0	70911	17.121282793137	2
0	70937	17.121664137777	3
0	70949	17.130200137777	2
0	71010	17.139578816673	3
0	71022	17.148114816673	2
0	71048	17.148556161313	3
0	71064	17.157092161313	2
0	71090	17.157393505953	3
0	71102	17.165929505953	2
0	71249	17.193342874129	3
0	71257	17.201878874129	2
0	71283	17.202500218769	3
0	71291	17.211036218769	2
0	71360	17.220314897665	3
0	71376	17.228850897665	2
0	71437	17.238449576561	3
0	71453	17.246985576561	2
0	71514	17.256564255457	3
0	71522	17.265100255457	2
0	71583	17.274338934353	3
0	71595	17.282874934353	2
0	71621	17.283616278993	3
0	71629	17.292152278993	2
0	71690	17.301410957889	3
0	71702	17.309946957889	2
0	71728	17.310288302529	3
0	71736	17.318824302529	2
0	71840	17.337380326065	3
0	71852	17.345916326065	2
0	71913	17.355315004961	3
0	71921	17.363851004961	2
0	71982	17.373609683857	3
0	71994	17.382145683857	2
0	72020	17.382467028497	3
0	72032	17.391003028497	2
0	72097	17.400501707393	3
0	72109	17.409037707393	2
0	72170	17.418696386289	3
0	72182	17.427232386289	2
0	72208	17.427633730929	3
0	72216	17.436169730929	2
0	72281	17.445448409825	3
0	72293	17.453984409825	2
0	72401	17.472480433361	3
0	72413	17.481016433361	2
0	72439	17.481657778001	3
0	72459	17.490193778001	2
0	72520	17.499512456897	3
0	72532	17.508048456897	2
0	72558	17.508569801537	3
0	72570	17.517105801537	2
0	72596	17.517487146177	3
0	72604	17.526023146177	2
0	72665	17.535301825073	3
0	72673	17.543837825073	2
0	72734	17.553356503969	3
0	72742	17.561892503969	2
0	72807	17.571411182865	3
0	72815	17.579947182865	2
0	72841	17.580508527505	3
0	72849	17.589044527505	2
0	72910	17.598403206401	3
0	72922	17.606939206401	2
0	72987	17.616497885297	3
0	72995	17.625033885297	2
0	73068	17.634792564193	3
0	73080	17.643328564193	2
0	73153	17.652787243089	3
0	73165	17.661323243089	2
0	73226	17.670721921985	3
0	73234	17.679257921985	2
0	73299	17.688956600881	3
0	73307	17.697492600881	2
0	73333	17.697913945521	3
0	73341	17.706449945521	2
0	73406	17.715888624417	3
0	73414	17.724424624417	2
0	73440	17.724845969057	3
0	73452	17.733381969057	2
0	73521	17.742920647953	3
0	73540	17.751456647953	2
0	73552	17.751906647953	3
0	73560	17.760442647953	2
0	73586	17.761043992593	3
0	73602	17.769579992593	2
0	73628	17.770381337233	3
0	73640	17.778917337233	2
0	73775	17.806270705409	3
0	73783	17.814806705409	2
0	73809	17.815508050049	3
0	73817	17.824044050049	2
0	73882	17.833462728945	3
0	73898	17.841998728945	2
0	73963	17.851357407841	3
0	73971	17.859893407841	2
0	73997	17.860394752481	3
0	74009	17.868930752481	2
0	74070	17.878489431377	3
0	74082	17.887025431377	2
0	74147	17.896704110273	3
0	74159	17.905240110273	2
0	74185	17.905621454913	3
0	74201	17.914157454913	2
0	74266	17.923636133809	3
0	74274	17.932172133809	2
0	74374	17.950468157345	3
0	74386	17.959004157345	2
0	74412	17.959405501985	3
0	74420	17.967941501985	2
0	74563	17.995334870161	3
0	74575	18.003870870161	2
0	74601	18.004412214801	3
0	74613	18.012948214801	2
0	74713	18.031284238337	3
0	74721	18.039820238337	2
0	74747	18.040341582977	3
0	74759	18.048877582977	2
0	74855	18.067353606513	3
0	74867	18.075889606513	2
0	74893	18.076590951153	3
0	74909	18.085126951153	2
0	75040	18.112240319329	3
0	75048	18.120776319329	2
0	75117	18.130214998225	3
0	75129	18.138750998225	2
0	75190	18.147929677121	3
0	75198	18.156465677121	2
0	75267	18.165924356017	3
0	75286	18.174460356017	2
0	75333	18.183867700657	3
0	75345	18.192403700657	2
0	75371	18.192905045297	3
0	75379	18.201441045297	2
0	75448	18.210879724193	3
0	75460	18.219415724193	2
0	75568	18.237991747729	3
0	75580	18.246527747729	2
0	75606	18.247229092369	3
0	75614	18.255765092369	2
0	75675	18.265123771265	3
0	75683	18.273659771265	2
0	75744	18.283218450161	3
0	75760	18.291754450161	2
0	75864	18.310030473697	3
0	75880	18.318566473697	2
0	75941	18.328065152593	3
0	75949	18.336601152593	2
0	75975	18.337082497233	3
0	75983	18.345618497233	2
0	76079	18.364014520769	3
0	76091	18.372550520769	2
0	76121	18.373011865409	3
0	76129	18.381547865409	2
0	76155	18.381869210049	3
0	76163	18.390405210049	2
0	76224	18.399803888945	3
0	76232	18.408339888945	2
0	76258	18.408801233585	3
0	76270	18.417337233585	2
0	76335	18.426815912481	3
0	76343	18.435351912481	2
0	76373	18.436013257121	3
0	76390	18.444549257121	2
0	76401	18.445399257121	3
0	76412	18.453935257121	2
0	76481	18.463593936017	3
0	76497	18.472129936017	2
0	76523	18.472691280657	3
0	76539	18.481227280657	2
0	76643	18.499803304193	3
0	76659	18.508339304193	2
0	76720	18.517577983089	3
0	76732	18.526113983089	2
0	76758	18.526415327729	3
0	76770	18.534951327729	2
0	76870	18.553547351265	3
0	76878	18.562083351265	2
0	76904	18.562444695905	3
0	76916	18.570980695905	2
0	76981	18.580639374801	3
0	76993	18.589175374801	2
0	77019	18.589536719441	3
0	77035	18.598072719441	2
0	77190	18.625426087617	3
0	77198	18.633962087617	2
0	77263	18.643700766513	3
0	77275	18.652236766513	2
0	77344	18.661495445409	3
0	77352	18.670031445409	2
0	77378	18.670452790049	3
0	77390	18.678988790049	2
0	77490	18.697544813585	3
0	77498	18.706080813585	2
0	77524	18.706462158225	3
0	77536	18.714998158225	2
0	77562	18.715299502865	3
0	77570	18.723835502865	2
0	77748	18.760026215681	3
0	77760	18.768562215681	2
0	77821	18.777920894577	3
0	77829	18.786456894577	2
0	77890	18.795895573473	3
0	77902	18.804431573473	2
0	77967	18.813970252369	3
0	77979	18.822506252369	2
0	78083	18.840982275905	3
0	78091	18.849518275905	2
0	78117	18.849939620545	3
0	78125	18.858475620545	2
0	78151	18.858856965185	3
0	78159	18.867392965185	2
0	78228	18.876751644081	3
0	78236	18.885287644081	2
0	78297	18.894566322977	3
0	78305	18.903102322977	2
0	78331	18.903523667617	3
0	78339	18.912059667617	2
0	78400	18.921638346513	3
0	78408	18.930174346513	2
0	78434	18.930615691153	3
0	78442	18.939151691153	2
0	78546	18.957707714689	3
0	78558	18.966243714689	2
0	78584	18.966725059329	3
0	78600	18.975261059329	2
0	78626	18.975682403969	3
0	78638	18.984218403969	2
0	78738	19.002734427505	3
0	78746	19.011270427505	2
0	78772	19.011791772145	3
0	78784	19.020327772145	2
0	78853	19.029686451041	3
0	78872	19.038222451041	2
0	78921	19.048249795681	3
0	78927	19.056785795681	2
0	78992	19.066164474577	3
0	79007	19.074700474577	2
0	79093	19.093925163857	3
0	79101	19.102461163857	2
0	79201	19.120697187393	3
0	79217	19.129233187393	2
0	79243	19.129534532033	3
0	79267	19.138070532033	2
0	79328	19.147589210929	3
0	79336	19.156125210929	2
0	79362	19.156686555569	3
0	79378	19.165222555569	2
0	79439	19.174781234465	3
0	79451	19.183317234465	2
0	79477	19.183778579105	3
0	79493	19.192314579105	2
0	79589	19.210870602641	3
0	79597	19.219406602641	2
0	79623	19.219867947281	3
0	79639	19.228403947281	2
0	79665	19.228785291921	3
0	79673	19.237321291921	2
0	79738	19.246759970817	3
0	79750	19.255295970817	2
0	79776	19.255717315457	3
0	79788	19.264253315457	2
0	79814	19.264674660097	3
0	79830	19.273210660097	2
0	79891	19.282529338993	3
0	79903	19.291065338993	2
0	79929	19.291586683633	3
0	79941	19.300122683633	2
0	80049	19.318678707169	3
0	80061	19.327214707169	2
0	80165	19.345690730705	3
0	80177	19.354226730705	2
0	80242	19.363745409601	3
0	80250	19.372281409601	2
0	80276	19.372662754241	3
0	80288	19.381198754241	2
0	80349	19.390817433137	3
0	80361	19.399353433137	2
0	80430	19.408912112033	3
0	80445	19.417448112033	2
0	80498	19.427755456673	3
0	80508	19.436291456673	2
0	80577	19.445730135569	3
0	80585	19.454266135569	2
0	80681	19.472822159105	3
0	80697	19.481358159105	2
0	80723	19.481839503745	3
0	80735	19.490375503745	2
0	80839	19.508771527281	3
0	80855	19.517307527281	2
0	80924	19.526766206177	3
0	80932	19.535302206177	2
0	80958	19.536023550817	3
0	80966	19.544559550817	2
0	81097	19.571712918993	3
0	81105	19.580248918993	2
0	81205	19.598824942529	3
0	81228	19.607360942529	2
0	81310	19.626065631809	3
0	81318	19.634601631809	2
0	81344	19.635042976449	3
0	81356	19.643578976449	2
0	81417	19.652897655345	3
0	81425	19.661433655345	2
0	81486	19.670992334241	3
0	81502	19.679528334241	2
0	81528	19.679949678881	3
0	81540	19.688485678881	2
0	81640	19.707021702417	3
0	81648	19.715557702417	2
0	81709	19.725136381313	3
0	81721	19.733672381313	2
0	81747	19.733993725953	3
0	81763	19.742529725953	2
0	81789	19.743111070593	3
0	81797	19.751647070593	2
0	81858	19.761225749489	3
0	81870	19.769761749489	2
0	82021	19.797015117665	3
0	82029	19.805551117665	2
0	82098	19.815209796561	3
0	82106	19.823745796561	2
0	82167	19.833084475457	3
0	82179	19.841620475457	2
0	82205	19.841941820097	3
0	82221	19.850477820097	2
0	82286	19.859736498993	3
0	82298	19.868272498993	2
0	82359	19.877571177889	3
0	82371	19.886107177889	2
0	82432	19.895725856785	3
0	82440	19.904261856785	2
0	82509	19.913800535681	3
0	82517	19.922336535681	2
0	82578	19.931755214577	3
0	82586	19.940291214577	2
0	82612	19.940732559217	3
0	82620	19.949268559217	2
0	82681	19.959027238113	3
0	82697	19.967563238113	2
0	82723	19.967864582753	3
0	82731	19.976400582753	2
0	82796	19.985939261649	3
0	82808	19.994475261649	2
0	82834	19.994856606289	3
1	0	0	0
1	0	0	0
1	0	0	2
1	64	0.040408595185	3
1	70	0.040648595185	2
1	220	0.076417963361	3
1	226	0.076657963361	2
1	259	0.085555308001	3
1	265	0.085795308001	2
1	366	0.112427331537	3
1	372	0.112667331537	2
1	443	0.130682010433	3
1	449	0.130922010433	2
1	482	0.139539355073	3
1	488	0.139779355073	2
1	631	0.175508723249	3
1	637	0.175748723249	2
1	784	0.211318091425	3
1	790	0.211558091425	2
1	861	0.229292770321	3
1	867	0.229532770321	2
1	1159	0.301440172417	3
1	1169	0.301680172417	2
1	1278	0.328252195953	3
1	1284	0.328492195953	2
1	1359	0.346226874849	3
1	1365	0.346466874849	2
1	1516	0.381996243025	3
1	1522	0.382236243025	2
1	1589	0.399710921921	3
1	1595	0.399950921921	2
1	1624	0.408588266561	3
1	1630	0.408828266561	2
1	1659	0.417625611201	3
1	1665	0.417865611201	2
1	1740	0.435560290097	3
1	1746	0.435800290097	2
1	1829	0.453594968993	3
1	1835	0.453834968993	2
1	1936	0.480646992529	3
1	1942	0.480886992529	2
1	2013	0.498721671425	3
1	2023	0.498961671425	2
1	2052	0.507639016065	3
1	2058	0.507879016065	2
1	2095	0.516676360705	3
1	2101	0.516916360705	2
1	2130	0.525553705345	3
1	2136	0.525793705345	2
1	2207	0.543608384241	3
1	2213	0.543848384241	2
1	2288	0.561663063137	3
1	2294	0.561903063137	2
1	2475	0.606449775953	3
1	2481	0.606689775953	2
1	2620	0.642419144129	3
1	2626	0.642659144129	2
1	2689	0.660673823025	3
1	2695	0.660913823025	2
1	2724	0.669511167665	3
1	2730	0.669751167665	2
1	2794	0.687534512305	3
1	2804	0.687774512305	2
1	2833	0.696871856945	3
1	2839	0.697111856945	2
1	2868	0.705969201585	3
1	2874	0.706209201585	2
1	2946	0.724332546225	3
1	2952	0.724572546225	2
1	2985	0.733729890865	3
1	2991	0.733969890865	2
1	3028	0.742987235505	3
1	3034	0.743227235505	2
1	3067	0.751824580145	3
1	3073	0.752064580145	2
1	3106	0.761201924785	3
1	3112	0.761441924785	2
1	3221	0.788133948321	3
1	3231	0.788373948321	2
1	3310	0.806108627217	3
1	3316	0.806348627217	2
1	3345	0.815425971857	3
1	3351	0.815665971857	2
1	3464	0.842517995393	3
1	3470	0.842757995393	2
1	3533	0.860792674289	3
1	3539	0.861032674289	2
1	3568	0.869730018929	3
1	3574	0.869970018929	2
1	3691	0.896702042465	3
1	3697	0.896942042465	2
1	3726	0.905699387105	3
1	3732	0.905939387105	2
1	3834	0.932840066001	3
1	3840	0.933080066001	2
1	3915	0.950914744897	3
1	3921	0.951154744897	2
1	3984	0.968769423793	3
1	3990	0.969009423793	2
1	4019	0.977666768433	3
1	4025	0.977906768433	2
1	4054	0.986784113073	3
1	4060	0.987024113073	2
1	4161	1.013816136609	3
1	4167	1.014056136609	2
1	4204	1.022833481249	3
1	4210	1.023073481249	2
1	4277	1.040648160145	3
1	4283	1.040888160145	2
1	4312	1.049725504785	3
1	4318	1.049965504785	2
1	4351	1.058602849425	3
1	4357	1.058842849425	2
1	4398	1.067460194065	3
1	4404	1.067700194065	2
1	4470	1.085374872961	3
1	4476	1.085614872961	2
1	4576	1.112546896497	3
1	4582	1.112786896497	2
1	4615	1.121404241137	3
1	4621	1.121644241137	2
1	4797	1.166250953953	3
1	4803	1.166490953953	2
1	4836	1.175148298593	3
1	4842	1.175388298593	2
1	4909	1.193402977489	3
1	4915	1.193642977489	2
1	4978	1.211417656385	3
1	4984	1.211657656385	2
1	5055	1.229492335281	3
1	5061	1.229732335281	2
1	5090	1.238569679921	3
1	5096	1.238809679921	2
1	5159	1.256664358817	3
1	5165	1.256904358817	2
1	5202	1.265541703457	3
1	5212	1.265781703457	2
1	5290	1.283756382353	3
1	5296	1.283996382353	2
1	5412	1.310848405889	3
1	5418	1.311088405889	2
1	5447	1.319865750529	3
1	5453	1.320105750529	2
1	5599	1.355555118705	3
1	5605	1.355795118705	2
1	5710	1.382447142241	3
1	5716	1.382687142241	2
1	5783	1.400581821137	3
1	5789	1.400821821137	2
1	5856	1.418396500033	3
1	5862	1.418636500033	2
1	5891	1.427573844673	3
1	5897	1.427813844673	2
1	6002	1.454565868209	3
1	6008	1.454805868209	2
1	6109	1.481577891745	3
1	6115	1.481817891745	2
1	6220	1.508649915281	3
1	6226	1.508889915281	2
1	6255	1.517867259921	3
1	6261	1.518107259921	2
1	6328	1.535681938817	3
1	6334	1.535921938817	2
1	6375	1.544619283457	3
1	6381	1.544859283457	2
1	6448	1.562373962353	3
1	6454	1.562613962353	2
1	6559	1.589405985889	3
1	6565	1.589645985889	2
1	6598	1.598303330529	3
1	6604	1.598543330529	2
1	6713	1.625235354065	3
1	6719	1.625475354065	2
1	6816	1.652307377601	3
1	6822	1.652547377601	2
1	6923	1.679279401137	3
1	6929	1.679519401137	2
1	6962	1.688436745777	3
1	6968	1.688676745777	2
1	7039	1.706431424673	3
1	7045	1.706671424673	2
1	7086	1.715468769313	3
1	7092	1.715708769313	2
1	7155	1.733283448209	3
1	7161	1.733523448209	2
1	7228	1.751218127105	3
1	7234	1.751458127105	2
1	7297	1.769372806001	3
1	7303	1.769612806001	2
1	7404	1.796364829537	3
1	7410	1.796604829537	2
1	7443	1.805322174177	3
1	7449	1.805562174177	2
1	7512	1.823396853073	3
1	7518	1.823636853073	2
1	7551	1.832274197713	3
1	7557	1.832514197713	2
1	7624	1.850428876609	3
1	7630	1.850668876609	2
1	7735	1.877420900145	3
1	7741	1.877660900145	2
1	7804	1.895535579041	3
1	7810	1.895775579041	2
1	7881	1.913610257937	3
1	7887	1.913850257937	2
1	7954	1.931864936833	3
1	7960	1.932104936833	2
1	8027	1.949999615729	3
1	8033	1.950239615729	2
1	8074	1.958976960369	3
1	8080	1.959216960369	2
1	8147	1.977131639265	3
1	8153	1.977371639265	2
1	8224	1.995226318161	3
1	8230	1.995466318161	2
1	8361	2.030975686337	3
1	8367	2.031215686337	2
1	8434	2.048970365233	3
1	8440	2.049210365233	2
1	8469	2.057967709873	3
1	8475	2.058207709873	2
1	8577	2.085988388769	3
1	8583	2.086228388769	2
1	8684	2.113060412305	3
1	8690	2.113300412305	2
1	8723	2.122137756945	3
1	8729	2.122377756945	2
1	8876	2.157687125121	3
1	8882	2.157927125121	2
1	9075	2.202353837937	3
1	9081	2.202593837937	2
1	9114	2.211371182577	3
1	9120	2.211611182577	2
1	9153	2.220228527217	3
1	9159	2.220468527217	2
1	9307	2.256606550753	3
1	9313	2.256846550753	2
1	9346	2.265443895393	3
1	9352	2.265683895393	2
1	9385	2.274501240033	3
1	9391	2.274741240033	2
1	9496	2.301393263569	3
1	9502	2.301633263569	2
1	9573	2.319347942465	3
1	9579	2.319587942465	2
1	9692	2.346059966001	3
1	9698	2.346299966001	2
1	9727	2.355017310641	3
1	9733	2.355257310641	2
1	9762	2.363874655281	3
1	9768	2.364114655281	2
1	9831	2.381789334177	3
1	9837	2.382029334177	2
1	9908	2.399964013073	3
1	9914	2.400204013073	2
1	10073	2.435893381249	3
1	10079	2.436133381249	2
1	10150	2.453828060145	3
1	10156	2.454068060145	2
1	10223	2.471962739041	3
1	10229	2.472202739041	2
1	10258	2.481040083681	3
1	10264	2.481280083681	2
1	10370	2.508660762577	3
1	10376	2.508900762577	2
1	10493	2.535692786113	3
1	10499	2.535932786113	2
1	10528	2.544710130753	3
1	10534	2.544950130753	2
1	10601	2.562504809649	3
1	10607	2.562744809649	2
1	10640	2.571482154289	3
1	10646	2.571722154289	2
1	10675	2.580499498929	3
1	10681	2.580739498929	2
1	10756	2.598214177825	3
1	10762	2.598454177825	2
1	10837	2.616508856721	3
1	10843	2.616748856721	2
1	10872	2.625586201361	3
1	10878	2.625826201361	2
1	10919	2.634423546001	3
1	10925	2.634663546001	2
1	11092	2.669972914177	3
1	11102	2.670212914177	2
1	11131	2.678930258817	3
1	11137	2.679170258817	2
1	11166	2.687807603457	3
1	11172	2.688047603457	2
1	11327	2.723716971633	3
1	11333	2.723956971633	2
1	11366	2.732814316273	3
1	11372	2.733054316273	2
1	11409	2.741811660913	3
1	11415	2.742051660913	2
1	11490	2.759586339809	3
1	11496	2.759826339809	2
1	11525	2.768443684449	3
1	11531	2.768683684449	2
1	11568	2.777381029089	3
1	11574	2.777621029089	2
1	11641	2.795595707985	3
1	11647	2.795835707985	2
1	11676	2.804593052625	3
1	11682	2.804833052625	2
1	11832	2.840502420801	3
1	11838	2.840742420801	2
1	11909	2.858457099697	3
1	11915	2.858697099697	2
1	11944	2.867394444337	3
1	11950	2.867634444337	2
1	12017	2.885689123233	3
1	12023	2.885929123233	2
1	12052	2.894626467873	3
1	12058	2.894866467873	2
1	12128	2.912841146769	3
1	12134	2.913081146769	2
1	12200	2.930555825665	3
1	12206	2.930795825665	2
1	12302	2.957667849201	3
1	12308	2.957907849201	2
1	12422	2.985108528097	3
1	12428	2.985348528097	2
1	12491	3.003163206993	3
1	12497	3.003403206993	2
1	12568	3.021397885889	3
1	12574	3.021637885889	2
1	12645	3.039252564785	3
1	12651	3.039492564785	2
1	12756	3.066124588321	3
1	12762	3.066364588321	2
1	12829	3.084199267217	3
1	12835	3.084439267217	2
1	12940	3.111071290753	3
1	12946	3.111311290753	2
1	13051	3.138163314289	3
1	13057	3.138403314289	2
1	13120	3.156237993185	3
1	13126	3.156477993185	2
1	13189	3.174112672081	3
1	13195	3.174352672081	2
1	13270	3.192347350977	3
1	13276	3.192587350977	2
1	13309	3.201224695617	3
1	13315	3.201464695617	2
1	13386	3.219079374513	3
1	13392	3.219319374513	2
1	13421	3.227996719153	3
1	13427	3.228236719153	2
1	13460	3.237014063793	3
1	13466	3.237254063793	2
1	13560	3.264474742689	3
1	13566	3.264714742689	2
1	13595	3.273312087329	3
1	13601	3.273552087329	2
1	13709	3.300384110865	3
1	13715	3.300624110865	2
1	13812	3.327496134401	3
1	13818	3.327736134401	2
1	13923	3.354368157937	3
1	13929	3.354608157937	2
1	14031	3.381468836833	3
1	14037	3.381708836833	2
1	14066	3.390506181473	3
1	14072	3.390746181473	2
1	14101	3.399403526113	3
1	14107	3.399643526113	2
1	14136	3.408360870753	3
1	14142	3.408600870753	2
1	14284	3.444690238929	3
1	14290	3.444930238929	2
1	14323	3.453747583569	3
1	14329	3.453987583569	2
1	14609	3.525234985665	3
1	14615	3.525474985665	2
1	14644	3.534192330305	3
1	14650	3.534432330305	2
1	14687	3.543149674945	3
1	14693	3.543389674945	2
1	14818	3.570261698481	3
1	14824	3.570501698481	2
1	14887	3.588536377377	3
1	14893	3.588776377377	2
1	14994	3.615348400913	3
1	15000	3.615588400913	2
1	15067	3.633523079809	3
1	15073	3.633763079809	2
1	15110	3.642600424449	3
1	15116	3.642840424449	2
1	15187	3.660595103345	3
1	15193	3.660835103345	2
1	15290	3.687727126881	3
1	15296	3.687967126881	2
1	15473	3.732453839697	3
1	15479	3.732693839697	2
1	15512	3.741291184337	3
1	15518	3.741531184337	2
1	15551	3.750268528977	3
1	15557	3.750508528977	2
1	15586	3.759205873617	3
1	15592	3.759445873617	2
1	15625	3.768123218257	3
1	15631	3.768363218257	2
1	15694	3.785877897153	3
1	15700	3.786117897153	2
1	15801	3.812949920689	3
1	15807	3.813189920689	2
1	15882	3.830864599585	3
1	15888	3.831104599585	2
1	15921	3.840001944225	3
1	15927	3.840241944225	2
1	15960	3.848899288865	3
1	15966	3.849139288865	2
1	16029	3.866893967761	3
1	16035	3.867133967761	2
1	16111	3.885197312401	3
1	16117	3.885437312401	2
1	16154	3.894534657041	3
1	16164	3.894774657041	2
1	16193	3.903392001681	3
1	16199	3.903632001681	2
1	16228	3.912309346321	3
1	16234	3.912549346321	2
1	16300	3.930164025217	3
1	16306	3.930404025217	2
1	16368	3.948758704113	3
1	16374	3.948998704113	2
1	16486	3.975790727649	3
1	16492	3.976030727649	2
1	16529	3.984988072289	3
1	16535	3.985228072289	2
1	16673	4.020997440465	3
1	16679	4.021237440465	2
1	16754	4.039212119361	3
1	16760	4.039452119361	2
1	16831	4.057106798257	3
1	16837	4.057346798257	2
1	16866	4.066024142897	3
1	16872	4.066264142897	2
1	16901	4.074881487537	3
1	16907	4.075121487537	2
1	16973	4.092956166433	3
1	16979	4.093196166433	2
1	17049	4.111010845329	3
1	17055	4.111250845329	2
1	17129	4.129165524225	3
1	17135	4.129405524225	2
1	17239	4.156197547761	3
1	17245	4.156437547761	2
1	17274	4.165374892401	3
1	17280	4.165614892401	2
1	17384	4.192466915937	3
1	17390	4.192706915937	2
1	17457	4.210741594833	3
1	17463	4.210981594833	2
1	17526	4.228896273729	3
1	17532	4.229136273729	2
1	17561	4.237793618369	3
1	17567	4.238033618369	2
1	17629	4.255768297265	3
1	17635	4.256008297265	2
[...]
30	77620	18.732982847505	1
30	77621	18.732982847505	2
30	77626	18.733222847505	1
30	77626	18.733222847505	0
30	77663	18.741900192145	1
30	77664	18.741900192145	2
30	77669	18.742140192145	1
30	77669	18.742140192145	0
30	77698	18.750777536785	1
30	77699	18.750777536785	2
30	77704	18.751017536785	1
30	77704	18.751017536785	0
30	77733	18.759694881425	1
30	77734	18.759694881425	2
30	77739	18.759934881425	1
30	77739	18.759934881425	0
30	77806	18.777509560321	1
30	77807	18.777509560321	2
30	77812	18.777749560321	1
30	77812	18.777749560321	0
30	77875	18.795364239217	1
30	77876	18.795364239217	2
30	77881	18.795604239217	1
30	77881	18.795604239217	0
30	77952	18.813598918113	1
30	77953	18.813598918113	2
30	77958	18.813838918113	1
30	77958	18.813838918113	0
30	78033	18.831753597009	1
30	78034	18.831753597009	2
30	78039	18.831993597009	1
30	78039	18.831993597009	0
30	78068	18.840590941649	1
30	78069	18.840590941649	2
30	78074	18.840830941649	1
30	78074	18.840830941649	0
30	78213	18.876280309825	1
30	78214	18.876280309825	2
30	78219	18.876520309825	1
30	78219	18.876520309825	0
30	78282	18.894154988721	1
30	78283	18.894154988721	2
30	78288	18.894394988721	1
30	78288	18.894394988721	0
30	78385	18.921267012257	1
30	78386	18.921267012257	2
30	78391	18.921507012257	1
30	78391	18.921507012257	0
30	78492	18.948339035793	1
30	78493	18.948339035793	2
30	78498	18.948579035793	1
30	78498	18.948579035793	0
30	78527	18.957356380433	1
30	78528	18.957356380433	2
30	78533	18.957596380433	1
30	78533	18.957596380433	0
30	78684	18.993105748609	1
30	78685	18.993105748609	2
30	78690	18.993345748609	1
30	78690	18.993345748609	0
30	78723	19.002283093249	1
30	78724	19.002283093249	2
30	78729	19.002523093249	1
30	78729	19.002523093249	0
30	78834	19.029375116785	1
30	78835	19.029375116785	2
30	78840	19.029615116785	1
30	78840	19.029615116785	0
30	78904	19.047798461425	1
30	78905	19.047798461425	2
30	78910	19.048038461425	1
30	78910	19.048038461425	0
30	78973	19.065673140321	1
30	78974	19.065673140321	2
30	78979	19.065913140321	1
30	78979	19.065913140321	0
30	79043	19.084436484961	1
30	79044	19.084436484961	2
30	79049	19.084676484961	1
30	79049	19.084676484961	0
30	79078	19.093413829601	1
30	79079	19.093413829601	2
30	79084	19.093653829601	1
30	79084	19.093653829601	0
30	79151	19.111388508497	1
30	79152	19.111388508497	2
30	79157	19.111628508497	1
30	79157	19.111628508497	0
30	79186	19.120385853137	1
30	79187	19.120385853137	2
30	79192	19.120625853137	1
30	79192	19.120625853137	0
30	79313	19.147137876673	1
30	79314	19.147137876673	2
30	79319	19.147377876673	1
30	79319	19.147377876673	0
30	79424	19.174249900209	1
30	79425	19.174249900209	2
30	79430	19.174489900209	1
30	79430	19.174489900209	0
30	79539	19.201361923745	1
30	79540	19.201361923745	2
30	79545	19.201601923745	1
30	79545	19.201601923745	0
30	79574	19.210419268385	1
30	79575	19.210419268385	2
30	79580	19.210659268385	1
30	79580	19.210659268385	0
30	79723	19.246348636561	1
30	79724	19.246348636561	2
30	79729	19.246588636561	1
30	79729	19.246588636561	0
30	79876	19.282178004737	1
30	79877	19.282178004737	2
30	79882	19.282418004737	1
30	79882	19.282418004737	0
30	79987	19.309110028273	1
30	79988	19.309110028273	2
30	79993	19.309350028273	1
30	79993	19.309350028273	0
30	80034	19.318367372913	1
30	80035	19.318367372913	2
30	80040	19.318607372913	1
30	80040	19.318607372913	0
30	80111	19.336202051809	1
30	80112	19.336202051809	2
30	80117	19.336442051809	1
30	80117	19.336442051809	0
30	80150	19.345139396449	1
30	80151	19.345139396449	2
30	80156	19.345379396449	1
30	80156	19.345379396449	0
30	80227	19.363254075345	1
30	80228	19.363254075345	2
30	80233	19.363494075345	1
30	80233	19.363494075345	0
30	80334	19.390346098881	1
30	80335	19.390346098881	2
30	80340	19.390586098881	1
30	80340	19.390586098881	0
30	80411	19.408220777777	1
30	80412	19.408220777777	2
30	80417	19.408460777777	1
30	80417	19.408460777777	0
30	80481	19.427244122417	1
30	80482	19.427244122417	2
30	80489	19.427484122417	1
30	80489	19.427484122417	0
30	80562	19.445318801313	1
30	80563	19.445318801313	2
30	80568	19.445558801313	1
30	80568	19.445558801313	0
30	80631	19.463533480209	1
30	80632	19.463533480209	2
30	80637	19.463773480209	1
30	80637	19.463773480209	0
30	80666	19.472430824849	1
30	80667	19.472430824849	2
30	80672	19.472670824849	1
30	80672	19.472670824849	0
30	80781	19.499322848385	1
30	80782	19.499322848385	2
30	80787	19.499562848385	1
30	80787	19.499562848385	0
30	80824	19.508440193025	1
30	80825	19.508440193025	2
30	80830	19.508680193025	1
30	80830	19.508680193025	0
30	80909	19.526374871921	1
30	80910	19.526374871921	2
30	80915	19.526614871921	1
30	80915	19.526614871921	0
30	81012	19.553446895457	1
30	81013	19.553446895457	2
30	81018	19.553686895457	1
30	81018	19.553686895457	0
30	81047	19.562384240097	1
30	81048	19.562384240097	2
30	81053	19.562624240097	1
30	81053	19.562624240097	0
30	81082	19.571241584737	1
30	81083	19.571241584737	2
30	81088	19.571481584737	1
30	81088	19.571481584737	0
30	81151	19.589256263633	1
30	81152	19.589256263633	2
30	81157	19.589496263633	1
30	81157	19.589496263633	0
30	81186	19.598133608273	1
30	81187	19.598133608273	2
30	81192	19.598373608273	1
30	81192	19.598373608273	0
30	81260	19.616276952913	1
30	81261	19.616276952913	2
30	81266	19.616516952913	1
30	81266	19.616516952913	0
30	81295	19.625594297553	1
30	81296	19.625594297553	2
30	81301	19.625834297553	1
30	81301	19.625834297553	0
30	81402	19.652446321089	1
30	81403	19.652446321089	2
30	81408	19.652686321089	1
30	81408	19.652686321089	0
30	81471	19.670560999985	1
30	81472	19.670560999985	2
30	81477	19.670800999985	1
30	81477	19.670800999985	0
30	81590	19.697373023521	1
30	81591	19.697373023521	2
30	81596	19.697613023521	1
30	81596	19.697613023521	0
30	81625	19.706570368161	1
30	81626	19.706570368161	2
30	81631	19.706810368161	1
30	81631	19.706810368161	0
30	81694	19.724665047057	1
30	81695	19.724665047057	2
30	81700	19.724905047057	1
30	81700	19.724905047057	0
30	81843	19.760634415233	1
30	81844	19.760634415233	2
30	81849	19.760874415233	1
30	81849	19.760874415233	0
30	81928	19.778729094129	1
30	81929	19.778729094129	2
30	81934	19.778969094129	1
30	81934	19.778969094129	0
30	81963	19.787746438769	1
30	81964	19.787746438769	2
30	81969	19.787986438769	1
30	81969	19.787986438769	0
30	82002	19.796603783409	1
30	82003	19.796603783409	2
30	82012	19.796843783409	1
30	82012	19.796843783409	0
30	82083	19.814418462305	1
30	82084	19.814418462305	2
30	82089	19.814658462305	1
30	82089	19.814658462305	0
30	82152	19.832693141201	1
30	82153	19.832693141201	2
30	82158	19.832933141201	1
30	82158	19.832933141201	0
30	82271	19.859425164737	1
30	82272	19.859425164737	2
30	82277	19.859665164737	1
30	82277	19.859665164737	0
30	82344	19.877139843633	1
30	82345	19.877139843633	2
30	82350	19.877379843633	1
30	82350	19.877379843633	0
30	82417	19.895134522529	1
30	82418	19.895134522529	2
30	82423	19.895374522529	1
30	82423	19.895374522529	0
30	82494	19.913269201425	1
30	82495	19.913269201425	2
30	82500	19.913509201425	1
30	82500	19.913509201425	0
30	82563	19.931423880321	1
30	82564	19.931423880321	2
30	82569	19.931663880321	1
30	82569	19.931663880321	0
30	82666	19.958315903857	1
30	82667	19.958315903857	2
30	82672	19.958555903857	1
30	82672	19.958555903857	0
30	82781	19.985307927393	1
30	82782	19.985307927393	2
30	82787	19.985547927393	1
30	82787	19.985547927393	0
31	365	0.1	240000
31	783	0.2	320000
31	1158	0.3	160000
31	1623	0.4	400000
31	2051	0.5	480000
31	2474	0.6	400000
31	2867	0.7	480000
31	3309	0.8	560000
31	3725	0.9	480000
31	4160	1	480000
31	4575	1.1	560000
31	4977	1.2	400000
31	5411	1.3	480000
31	5782	1.4	320000
31	6219	1.5	400000
31	6712	1.6	560000
31	7038	1.7	320000
31	7442	1.8	480000
31	7880	1.9	480000
31	8360	2	480000
31	8683	2.1	320000
31	9074	2.2	240000
31	9495	2.3	480000
31	10072	2.4	560000
31	10369	2.5	320000
31	10836	2.6	560000
31	11326	2.7	480000
31	11675	2.8	560000
31	12127	2.9	480000
31	12490	3	320000
31	12939	3.1	400000
31	13308	3.2	400000
31	13708	3.3	480000
31	14135	3.4	480000
31	14608	3.5	240000
31	14993	3.6	400000
31	15472	3.7	400000
31	15800	3.8	480000
31	16192	3.9	560000
31	16672	4	480000
31	17048	4.1	480000
31	17456	4.2	400000
31	17845	4.3	400000
31	18257	4.4	320000
31	18736	4.5	560000
31	19117	4.6	400000
31	19523	4.7	320000
31	20054	4.8	480000
31	20315	4.9	240000
31	21007	5	400000
31	21119	5.1	160000
31	21529	5.2	560000
31	21937	5.3	480000
31	22417	5.4	480000
31	22741	5.5	480000
31	23225	5.6	480000
31	23650	5.7	240000
31	24014	5.8	320000
31	24604	5.9	320000
31	24828	6	320000
31	25225	6.1	480000
31	25710	6.2	560000
31	26051	6.3	240000
31	26503	6.4	240000
31	26938	6.5	560000
31	27404	6.6	480000
31	27737	6.7	560000
31	28177	6.8	320000
31	28649	6.9	480000
31	28945	7	240000
31	29415	7.1	400000
31	29767	7.2	320000
31	30162	7.3	640000
31	30626	7.4	640000
31	31084	7.5	480000
31	31484	7.6	480000
31	31885	7.7	560000
31	32283	7.8	160000
31	32645	7.9	480000
31	33094	8	400000
31	33513	8.1	400000
31	33902	8.2	400000
31	34352	8.3	480000
31	34717	8.4	400000
31	35123	8.5	560000
31	35542	8.6	400000
31	35949	8.7	400000
31	36397	8.8	560000
31	36834	8.9	400000
31	37272	9	480000
31	37591	9.1	400000
31	38034	9.2	400000
31	38467	9.3	320000
31	38844	9.4	400000
31	39267	9.5	400000
31	39782	9.6	400000
31	40154	9.7	320000
31	40558	9.8	400000
31	40981	9.9	400000
31	41358	10	400000
31	41793	10.1	560000
31	42229	10.2	480000
31	42597	10.3	320000
31	43012	10.4	400000
31	43435	10.5	400000
31	43846	10.6	400000
31	44310	10.7	480000
31	44680	10.8	480000
31	45159	10.9	400000
31	45528	11	400000
31	45909	11.1	400000
31	46359	11.2	480000
31	46786	11.3	400000
31	47219	11.4	480000
31	47589	11.5	480000
31	48003	11.6	640000
31	48440	11.7	400000
31	48891	11.8	560000
31	49261	11.9	400000
31	49707	12	480000
31	50076	12.1	400000
31	50483	12.2	400000
31	50969	12.3	640000
31	51320	12.4	400000
31	51804	12.5	320000
31	52290	12.6	560000
31	52615	12.7	240000
31	53057	12.8	480000
31	53507	12.9	480000
31	53841	13	240000
31	54250	13.1	560000
31	54660	13.2	320000
31	55150	13.3	560000
31	55518	13.4	320000
31	56005	13.5	320000
31	56367	13.6	480000
31	56836	13.7	400000
31	57225	13.8	400000
31	57641	13.9	400000
31	58041	14	480000
31	58545	14.1	320000
31	58800	14.2	320000
31	59254	14.3	480000
31	59707	14.4	400000
31	60118	14.5	400000
31	60486	14.6	560000
31	60990	14.7	480000
31	61375	14.8	400000
31	61829	14.9	400000
31	62167	15	320000
31	62581	15.1	320000
31	63045	15.2	320000
31	63457	15.3	480000
31	63834	15.4	400000
31	64241	15.5	400000
31	64645	15.6	400000
31	65057	15.7	480000
31	65573	15.8	480000
31	66011	15.9	400000
31	66345	16	320000
31	66677	16.1	480000
31	67192	16.2	480000
31	67473	16.3	320000
31	67909	16.4	320000
31	68367	16.5	480000
31	68893	16.6	400000
31	69168	16.7	320000
31	69651	16.8	400000
31	70006	16.9	400000
31	70519	17	400000
31	70883	17.1	320000
31	71344	17.2	400000
31	71674	17.3	320000
31	72154	17.4	480000
31	72649	17.5	400000
31	72971	17.6	320000
31	73390	17.7	400000
31	73759	17.8	320000
31	74250	17.9	400000
31	74658	18	480000
31	74989	18.1	400000
31	75428	18.2	480000
31	75813	18.3	400000
31	76319	18.4	480000
31	76704	18.5	320000
31	77088	18.6	320000
31	77619	18.7	560000
31	77951	18.8	480000
31	78384	18.9	400000
31	78722	19	320000
31	79150	19.1	480000
31	79538	19.2	320000
31	79986	19.3	320000
31	80410	19.4	480000
31	80823	19.5	480000
31	81259	19.6	560000
31	81624	19.7	400000
31	82082	19.8	480000
31	82493	19.9	400000
31	82842	20	320000
32	1007	0.265112067518	1055
32	2760	0.678418441326	1055
32	2908	0.715016475246	1055
32	3758	0.914566660766	1055
32	8535	2.07623231779	1055
32	9273	2.247330479774	1055
32	10328	2.499004691598	1055
32	12342	2.966715122862	1055
32	13526	3.25483867171	1055
32	13989	3.372512765854	1055
32	14393	3.471492191486	1055
32	16061	3.875901241422	1055
32	18074	4.36428632043	1055
32	18224	4.400424343966	1055
32	18703	4.517838448494	1055
32	19486	4.707111258222	1055
32	19891	4.806670663086	1055
32	20746	5.014078172478	1055
32	21496	5.194173679102	1055
32	24094	5.823796261966	1055
32	24431	5.905440987934	1055
32	25192	6.09475381843	1055
32	26130	6.319696017102	1055
32	28832	6.976130613118	1055
32	29064	7.030663325934	1055
32	30024	7.265582858862	1055
32	32075	7.761385292894	1055
32	32178	7.789045982174	1055
32	34940	8.455737881294	1055
32	36318	8.789868163726	1055
32	37628	9.114241091134	1055
32	37767	9.15107911467	1055
32	38290	9.277410553454	1055
32	40406	9.782690321742	1055
32	47186	11.402280430798	1055
32	49066	11.860033507038	1055
32	51953	12.545200105822	1055
32	53651	12.958906458862	1055
32	54804	13.236972694222	1055
32	55786	13.471512247918	1055
32	57539	13.886378600958	1055
32	58685	14.17382221211	1055
32	60155	14.525127194206	1055
32	61689	14.884989510558	1055
32	62614	15.109191719614	1055
32	62864	15.172561766686	1055
32	64573	15.586868119726	1055
32	65244	15.749528926686	1055
32	65468	15.803901629118	1055
32	65872	15.903581044366	1055
32	66714	16.111348564142	1055
32	67229	16.236980002926	1055
32	68746	16.607499622382	1055
32	69092	16.688824358734	1055
32	70275	16.967450614862	1055
32	70398	16.995091293758	1055
32	73538	17.751456587358	1055
32	75284	18.174460295422	1055
32	76386	18.444549186142	1055
32	78870	19.038222390446	1055
32	79005	19.074700413982	1055
32	80443	19.417448051438	1055
32	81226	19.607360881934	1055
33	1008	0.265112067518	1055
33	2761	0.678418441326	1055
33	2909	0.715016475246	1055
33	3759	0.914566660766	1055
33	8536	2.07623231779	1055
33	9274	2.247330479774	1055
33	10329	2.499004691598	1055
33	12343	2.966715122862	1055
33	13527	3.25483867171	1055
33	13990	3.372512765854	1055
33	14394	3.471492191486	1055
33	16062	3.875901241422	1055
33	18075	4.36428632043	1055
33	18225	4.400424343966	1055
33	18704	4.517838448494	1055
33	19487	4.707111258222	1055
33	19892	4.806670663086	1055
33	20747	5.014078172478	1055
33	21497	5.194173679102	1055
33	24095	5.823796261966	1055
33	24432	5.905440987934	1055
33	25193	6.09475381843	1055
33	26131	6.319696017102	1055
33	28833	6.976130613118	1055
33	29065	7.030663325934	1055
33	30025	7.265582858862	1055
33	32076	7.761385292894	1055
33	32179	7.789045982174	1055
33	34941	8.455737881294	1055
33	36319	8.789868163726	1055
33	37629	9.114241091134	1055
33	37768	9.15107911467	1055
33	38291	9.277410553454	1055
33	40407	9.782690321742	1055
33	47187	11.402280430798	1055
33	49067	11.860033507038	1055
33	51954	12.545200105822	1055
33	53652	12.958906458862	1055
33	54805	13.236972694222	1055
33	55787	13.471512247918	1055
33	57540	13.886378600958	1055
33	58686	14.17382221211	1055
33	60156	14.525127194206	1055
33	61690	14.884989510558	1055
33	62615	15.109191719614	1055
33	62865	15.172561766686	1055
33	64574	15.586868119726	1055
33	65245	15.749528926686	1055
33	65469	15.803901629118	1055
33	65873	15.903581044366	1055
33	66715	16.111348564142	1055
33	67230	16.236980002926	1055
33	68747	16.607499622382	1055
33	69093	16.688824358734	1055
33	70276	16.967450614862	1055
33	70399	16.995091293758	1055
33	73539	17.751456587358	1055
33	75285	18.174460295422	1055
33	76387	18.444549186142	1055
33	78871	19.038222390446	1055
33	79006	19.074700413982	1055
33	80444	19.417448051438	1055
33	81227	19.607360881934	1055
34	1012	0.265112138497	1055
34	2765	0.678418512305	1055
34	2913	0.715016546225	1055
34	3763	0.914566731745	1055
34	8540	2.076232388769	1055
34	9278	2.247330550753	1055
34	10333	2.499004762577	1055
34	12347	2.966715193841	1055
34	13531	3.254838742689	1055
34	13994	3.372512836833	1055
34	14398	3.471492262465	1055
34	16066	3.875901312401	1055
34	18079	4.364286391409	1055
34	18229	4.400424414945	1055
34	18708	4.517838519473	1055
34	19491	4.707111329201	1055
34	19896	4.806670734065	1055
34	20751	5.014078243457	1055
34	21501	5.194173750081	1055
34	24099	5.823796332945	1055
34	24436	5.905441058913	1055
34	25197	6.094753889409	1055
34	26135	6.319696088081	1055
34	28837	6.976130684097	1055
34	29069	7.030663396913	1055
34	30029	7.265582929841	1055
34	32080	7.761385363873	1055
34	32183	7.789046053153	1055
34	34945	8.455737952273	1055
34	36323	8.789868234705	1055
34	37633	9.114241162113	1055
34	37772	9.151079185649	1055
34	38295	9.277410624433	1055
34	40411	9.782690392721	1055
34	47191	11.402280501777	1055
34	49071	11.860033578017	1055
34	51958	12.545200176801	1055
34	53656	12.958906529841	1055
34	54809	13.236972765201	1055
34	55791	13.471512318897	1055
34	57544	13.886378671937	1055
34	58690	14.173822283089	1055
34	60160	14.525127265185	1055
34	61694	14.884989581537	1055
34	62619	15.109191790593	1055
34	62869	15.172561837665	1055
34	64578	15.586868190705	1055
34	65249	15.749528997665	1055
34	65473	15.803901700097	1055
34	65877	15.903581115345	1055
34	66719	16.111348635121	1055
34	67234	16.236980073905	1055
34	68751	16.607499693361	1055
34	69097	16.688824429713	1055
34	70280	16.967450685841	1055
34	70403	16.995091364737	1055
34	73543	17.751456658337	1055
34	75289	18.174460366401	1055
34	76391	18.444549257121	1055
34	78875	19.038222461425	1055
34	79010	19.074700484961	1055
34	80448	19.417448122417	1055
34	81231	19.607360952913	1055
35	82842	0.1	0
35	82842	0.2	0
35	82842	0.3	0
35	82842	0.4	0
35	82842	0.5	0
35	82842	0.6	0
35	82842	0.7	0
35	82842	0.8	0
35	82842	0.9	0
35	82842	1	0
35	82842	1.1	0
35	82842	1.2	0
35	82842	1.3	0
35	82842	1.4	0
35	82842	1.5	0
35	82842	1.6	0
35	82842	1.7	0
35	82842	1.8	0
35	82842	1.9	0
35	82842	2	0
35	82842	2.1	0
35	82842	2.2	0
35	82842	2.3	0
35	82842	2.4	0
35	82842	2.5	0
35	82842	2.6	0
35	82842	2.7	0
35	82842	2.8	0
35	82842	2.9	0
35	82842	3	0
35	82842	3.1	0
35	82842	3.2	0
35	82842	3.3	0
35	82842	3.4	0
35	82842	3.5	0
35	82842	3.6	0
35	82842	3.7	0
35	82842	3.8	0
35	82842	3.9	0
35	82842	4	0
35	82842	4.1	0
35	82842	4.2	0
35	82842	4.3	0
35	82842	4.4	0
35	82842	4.5	0
35	82842	4.6	0
35	82842	4.7	0
35	82842	4.8	0
35	82842	4.9	0
35	82842	5	0
35	82842	5.1	0
35	82842	5.2	0
35	82842	5.3	0
35	82842	5.4	0
35	82842	5.5	0
35	82842	5.6	0
35	82842	5.7	0
35	82842	5.8	0
35	82842	5.9	0
35	82842	6	0
35	82842	6.1	0
35	82842	6.2	0
35	82842	6.3	0
35	82842	6.4	0
35	82842	6.5	0
35	82842	6.6	0
35	82842	6.7	0
35	82842	6.8	0
35	82842	6.9	0
35	82842	7	0
35	82842	7.1	0
35	82842	7.2	0
35	82842	7.3	0
35	82842	7.4	0
35	82842	7.5	0
35	82842	7.6	0
35	82842	7.7	0
35	82842	7.8	0
35	82842	7.9	0
35	82842	8	0
35	82842	8.1	0
35	82842	8.2	0
35	82842	8.3	0
35	82842	8.4	0
35	82842	8.5	0
35	82842	8.6	0
35	82842	8.7	0
35	82842	8.8	0
35	82842	8.9	0
35	82842	9	0
35	82842	9.1	0
35	82842	9.2	0
35	82842	9.3	0
35	82842	9.4	0
35	82842	9.5	0
35	82842	9.6	0
35	82842	9.7	0
35	82842	9.8	0
35	82842	9.9	0
35	82842	10	0
35	82842	10.1	0
35	82842	10.2	0
35	82842	10.3	0
35	82842	10.4	0
35	82842	10.5	0
35	82842	10.6	0
35	82842	10.7	0
35	82842	10.8	0
35	82842	10.9	0
35	82842	11	0
35	82842	11.1	0
35	82842	11.2	0
35	82842	11.3	0
35	82842	11.4	0
35	82842	11.5	0
35	82842	11.6	0
35	82842	11.7	0
35	82842	11.8	0
35	82842	11.9	0
35	82842	12	0
35	82842	12.1	0
35	82842	12.2	0
35	82842	12.3	0
35	82842	12.4	0
35	82842	12.5	0
35	82842	12.6	0
35	82842	12.7	0
35	82842	12.8	0
35	82842	12.9	0
35	82842	13	0
35	82842	13.1	0
35	82842	13.2	0
35	82842	13.3	0
35	82842	13.4	0
35	82842	13.5	0
35	82842	13.6	0
35	82842	13.7	0
35	82842	13.8	0
35	82842	13.9	0
35	82842	14	0
35	82842	14.1	0
35	82842	14.2	0
35	82842	14.3	0
35	82842	14.4	0
35	82842	14.5	0
35	82842	14.6	0
35	82842	14.7	0
35	82842	14.8	0
35	82842	14.9	0
35	82842	15	0
35	82842	15.1	0
35	82842	15.2	0
35	82842	15.3	0
35	82842	15.4	0
35	82842	15.5	0
35	82842	15.6	0
35	82842	15.7	0
35	82842	15.8	0
35	82842	15.9	0
35	82842	16	0
35	82842	16.1	0
35	82842	16.2	0
35	82842	16.3	0
35	82842	16.4	0
35	82842	16.5	0
35	82842	16.6	0
35	82842	16.7	0
35	82842	16.8	0
35	82842	16.9	0
35	82842	17	0
35	82842	17.1	0
35	82842	17.2	0
35	82842	17.3	0
35	82842	17.4	0
35	82842	17.5	0
35	82842	17.6	0
35	82842	17.7	0
35	82842	17.8	0
35	82842	17.9	0
35	82842	18	0
35	82842	18.1	0
35	82842	18.2	0
35	82842	18.3	0
35	82842	18.4	0
35	82842	18.5	0
35	82842	18.6	0
35	82842	18.7	0
35	82842	18.8	0
35	82842	18.9	0
35	82842	19	0
35	82842	19.1	0
35	82842	19.2	0
35	82842	19.3	0
35	82842	19.4	0
35	82842	19.5	0
35	82842	19.6	0
35	82842	19.7	0
35	82842	19.8	0
35	82842	19.9	0
35	82842	20	0

