version 2
run Wireless05-0-20210901-16:21:19-32344
attr configname Wireless05
attr datetime 20210901-16:21:19
attr experiment Wireless05
attr inifile omnetpp.ini
attr iterationvars ""
attr iterationvarsf ""
attr measurement ""
attr network WirelessB
attr processid 32344
attr repetition 0
attr replication #0
attr resultdir results
attr runnumber 0
attr seedset 0
param *.host*.wlan[0].radio.receiver.ignoreInterference false
param *.host*.wlan[0].radio.transmitter.interferenceRange 500m
param *.hostA.wlan[0].radio.displayInterferenceRange true
param *.visualizer.dataLinkVisualizer.packetFilter "\"\""
param *.host*.forwarding true
param *.configurator.config "xml(\"<config><interface hosts='**' address='10.0.0.x' netmask='255.255.255.0'/><autoroute metric='errorRate'/></config>\")"
param *.configurator.optimizeRoutes false
param *.host*.ipv4.routingTable.netmaskRoutes "\"\""
param *.visualizer.physicalLinkVisualizer.displayLinks true
param *.visualizer.dataLinkVisualizer.displayLinks true
param *.visualizer.networkRouteVisualizer.displayRoutes true
param *.visualizer.*LinkVisualizer.lineShift 0
param *.visualizer.networkRouteVisualizer.lineShift 0
param *.visualizer.networkRouteVisualizer.packetFilter "\"UDPData*\""
param *.host*.wlan[0].radio.transmitter.communicationRange 250m
param *.hostR1.wlan[0].radio.displayCommunicationRange true
param *.hostA.wlan[0].radio.displayCommunicationRange true
param *.visualizer.sceneVisualizer.descriptionFigure "\"title\""
param *.visualizer.mediumVisualizer.displaySignals true
param *.visualizer.physicalLinkVisualizer.displayLinks true
param *.visualizer.physicalLinkVisualizer.packetFilter "\"UDPData*\""
param *.host*.ipv4.arp.typename "\"GlobalArp\""
param *.hostA.numApps 1
param *.hostA.app[0].typename "\"UdpBasicApp\""
param *.hostA.app[0].destAddresses "\"hostB\""
param *.hostA.app[0].destPort 5000
param *.hostA.app[0].messageLength 1000B
param *.hostA.app[0].sendInterval exponential(12ms)
param *.hostA.app[0].packetName "\"UDPData\""
param *.hostB.numApps 1
param *.hostB.app[0].typename "\"UdpSink\""
param *.hostB.app[0].localPort 5000
param *.host*.wlan[0].typename "\"AckingWirelessInterface\""
param *.host*.wlan[0].mac.useAck false
param *.host*.wlan[0].mac.fullDuplex false
param *.host*.wlan[0].radio.transmitter.communicationRange 400m
param *.host*.wlan[0].radio.receiver.ignoreInterference true
param *.host*.wlan[0].mac.headerLength 23B
param *.host*.**.bitrate 1Mbps

vector 0 WirelessB.hostA.wlan[0].radio radioMode:vector ETV
attr interpolationmode sample-hold
attr source radioModeChanged
attr title "Radio mode, vector"
vector 1 WirelessB.hostB.wlan[0].radio radioMode:vector ETV
attr interpolationmode sample-hold
attr source radioModeChanged
attr title "Radio mode, vector"
vector 2 WirelessB.hostR1.wlan[0].radio radioMode:vector ETV
attr interpolationmode sample-hold
attr source radioModeChanged
attr title "Radio mode, vector"
vector 3 WirelessB.hostR2.wlan[0].radio radioMode:vector ETV
attr interpolationmode sample-hold
attr source radioModeChanged
attr title "Radio mode, vector"
vector 4 WirelessB.hostR3.wlan[0].radio radioMode:vector ETV
attr interpolationmode sample-hold
attr source radioModeChanged
attr title "Radio mode, vector"
vector 5 WirelessB.hostA.wlan[0].radio receptionState:vector ETV
attr interpolationmode sample-hold
attr source receptionStateChanged
attr title "Radio reception state, vector"
vector 6 WirelessB.hostB.wlan[0].radio receptionState:vector ETV
attr interpolationmode sample-hold
attr source receptionStateChanged
attr title "Radio reception state, vector"
vector 7 WirelessB.hostR1.wlan[0].radio receptionState:vector ETV
attr interpolationmode sample-hold
attr source receptionStateChanged
attr title "Radio reception state, vector"
vector 8 WirelessB.hostR2.wlan[0].radio receptionState:vector ETV
attr interpolationmode sample-hold
attr source receptionStateChanged
attr title "Radio reception state, vector"
vector 9 WirelessB.hostR3.wlan[0].radio receptionState:vector ETV
attr interpolationmode sample-hold
attr source receptionStateChanged
attr title "Radio reception state, vector"
vector 10 WirelessB.hostA.app[0] packetSent:vector(packetBytes) ETV
attr interpolationmode none
attr source packetSent
attr title "packets sent, vector(packetBytes)"
vector 11 WirelessB.hostA.udp packetSent:vector(packetBytes) ETV
attr interpolationmode none
attr source packetSent
attr title "packets sent, vector(packetBytes)"
vector 12 WirelessB.hostA.wlan[0].mac rcvdPkFromHl:vector(packetBytes) ETV
attr interpolationmode none
attr source packetReceivedFromUpper
attr title "packets received from higher layer, vector(packetBytes)"
vector 13 WirelessB.hostA.wlan[0].mac.queue packetPushed:vector(packetBytes) ETV
attr interpolationmode none
attr title "packet pushed, vector(packetBytes)"
vector 14 WirelessB.hostA.wlan[0].mac.queue queueLength:vector ETV
attr interpolationmode sample-hold
attr source "count(packetPushed) - count(packetPopped) - count(packetRemoved) - count(packetDropped)"
attr title "queue length, vector"
vector 15 WirelessB.hostA.wlan[0].mac.queue packetPopped:vector(packetBytes) ETV
attr interpolationmode none
attr title "packet popped, vector(packetBytes)"
vector 16 WirelessB.hostA.wlan[0].mac.queue queueingTime:vector ETV
attr interpolationmode none
attr source queueingTime(packetPopped)
attr title "queueing times, vector"
attr unit s
vector 17 WirelessB.hostA.wlan[0].radio transmissionState:vector ETV
attr interpolationmode sample-hold
attr source transmissionStateChanged
attr title "Radio transmission state, vector"
vector 18 WirelessB.hostA.wlan[0].mac sentDownPk:vector(packetBytes) ETV
attr interpolationmode none
attr source packetSentToLower
attr title "packets sent to lower layer, vector(packetBytes)"
vector 19 WirelessB.hostR2.wlan[0].mac rcvdPkFromLl:vector(packetBytes) ETV
attr interpolationmode none
attr source packetReceivedFromLower
attr title "packets received from lower layer, vector(packetBytes)"
vector 20 WirelessB.hostR2.wlan[0].mac packetDropNotAddressedToUs:vector(packetBytes) ETV
attr interpolationmode none
attr source packetDropReasonIsNotAddressedToUs(packetDropped)
attr title "packet drop: not addressed to us, vector(packetBytes)"
vector 21 WirelessB.hostR1.wlan[0].mac rcvdPkFromLl:vector(packetBytes) ETV
attr interpolationmode none
attr source packetReceivedFromLower
attr title "packets received from lower layer, vector(packetBytes)"
vector 22 WirelessB.hostR1.wlan[0].mac passedUpPk:vector(packetBytes) ETV
attr interpolationmode none
attr source packetSentToUpper
attr title "packets passed to higher layer, vector(packetBytes)"
vector 23 WirelessB.hostR1.wlan[0].mac rcvdPkFromHl:vector(packetBytes) ETV
attr interpolationmode none
attr source packetReceivedFromUpper
attr title "packets received from higher layer, vector(packetBytes)"
vector 24 WirelessB.hostR1.wlan[0].mac.queue packetPushed:vector(packetBytes) ETV
attr interpolationmode none
attr title "packet pushed, vector(packetBytes)"
vector 25 WirelessB.hostR1.wlan[0].mac.queue queueLength:vector ETV
attr interpolationmode sample-hold
attr source "count(packetPushed) - count(packetPopped) - count(packetRemoved) - count(packetDropped)"
attr title "queue length, vector"
vector 26 WirelessB.hostR1.wlan[0].mac.queue packetPopped:vector(packetBytes) ETV
attr interpolationmode none
attr title "packet popped, vector(packetBytes)"
vector 27 WirelessB.hostR1.wlan[0].mac.queue queueingTime:vector ETV
attr interpolationmode none
attr source queueingTime(packetPopped)
attr title "queueing times, vector"
attr unit s
vector 28 WirelessB.hostR1.wlan[0].radio transmissionState:vector ETV
attr interpolationmode sample-hold
attr source transmissionStateChanged
attr title "Radio transmission state, vector"
vector 29 WirelessB.hostR1.wlan[0].mac sentDownPk:vector(packetBytes) ETV
attr interpolationmode none
attr source packetSentToLower
attr title "packets sent to lower layer, vector(packetBytes)"
vector 30 WirelessB.hostR2.wlan[0].mac packetDropIncorrectlyReceived:vector(packetBytes) ETV
attr interpolationmode none
attr source packetDropReasonIsIncorrectlyReceived(packetDropped)
attr title "packet drop: incorrectly received, vector(packetBytes)"
vector 31 WirelessB.hostR3.wlan[0].mac rcvdPkFromLl:vector(packetBytes) ETV
attr interpolationmode none
attr source packetReceivedFromLower
attr title "packets received from lower layer, vector(packetBytes)"
vector 32 WirelessB.hostR3.wlan[0].mac packetDropIncorrectlyReceived:vector(packetBytes) ETV
attr interpolationmode none
attr source packetDropReasonIsIncorrectlyReceived(packetDropped)
attr title "packet drop: incorrectly received, vector(packetBytes)"
vector 33 WirelessB.hostB.wlan[0].mac rcvdPkFromLl:vector(packetBytes) ETV
attr interpolationmode none
attr source packetReceivedFromLower
attr title "packets received from lower layer, vector(packetBytes)"
vector 34 WirelessB.hostB.wlan[0].mac packetDropIncorrectlyReceived:vector(packetBytes) ETV
attr interpolationmode none
attr source packetDropReasonIsIncorrectlyReceived(packetDropped)
attr title "packet drop: incorrectly received, vector(packetBytes)"
vector 35 WirelessB.hostR3.wlan[0].mac packetDropNotAddressedToUs:vector(packetBytes) ETV
attr interpolationmode none
attr source packetDropReasonIsNotAddressedToUs(packetDropped)
attr title "packet drop: not addressed to us, vector(packetBytes)"
vector 36 WirelessB.hostA.wlan[0].mac rcvdPkFromLl:vector(packetBytes) ETV
attr interpolationmode none
attr source packetReceivedFromLower
attr title "packets received from lower layer, vector(packetBytes)"
vector 37 WirelessB.hostA.wlan[0].mac packetDropNotAddressedToUs:vector(packetBytes) ETV
attr interpolationmode none
attr source packetDropReasonIsNotAddressedToUs(packetDropped)
attr title "packet drop: not addressed to us, vector(packetBytes)"
vector 38 WirelessB.hostB.wlan[0].mac passedUpPk:vector(packetBytes) ETV
attr interpolationmode none
attr source packetSentToUpper
attr title "packets passed to higher layer, vector(packetBytes)"
vector 39 WirelessB.hostB.udp packetReceived:vector(packetBytes) ETV
attr interpolationmode none
attr source packetReceived
attr title "packets received, vector(packetBytes)"
vector 40 WirelessB.hostB.udp passedUpPk:vector(count) ETV
attr interpolationmode none
attr source packetSentToUpper
attr title "packets passed up, vector(count)"
vector 41 WirelessB.hostB.app[0] packetReceived:vector(packetBytes) ETV
attr interpolationmode none
attr source packetReceived
attr title "packets received, vector(packetBytes)"
vector 42 WirelessB.hostB.app[0] throughput:vector ETV
attr source throughput(packetReceived)
attr title "throughput, vector"
attr unit bps
vector 43 WirelessB.hostB.app[0] endToEndDelay:vector ETV
attr interpolationmode none
attr source dataAge(packetReceived)
attr title "end-to-end delay, vector"
attr unit s
vector 44 WirelessB.hostB.app[0] rcvdPkSeqNo:vector ETV
attr interpolationmode none
attr source appPkSeqNo(packetReceived)
attr title "received packet sequence number, vector"
0	0	0	0
0	0	0	0
0	0	0	2
0	8	0.022315250545	3
0	18	0.030819250545	2
0	18	0.030819250545	3
0	41	0.039323250545	2
0	41	0.039323250545	3
0	60	0.047827250545	2
0	79	0.053995414818	3
0	98	0.062499414818	2
0	98	0.062499414818	3
0	113	0.071003414818	2
0	113	0.071003414818	3
0	133	0.079507414818	2
0	152	0.089528900904	3
0	162	0.098032900904	2
0	162	0.098032900904	3
0	181	0.106536900904	2
0	197	0.107003186959	3
0	208	0.115507186959	2
0	208	0.115507186959	3
0	229	0.124011186959	2
0	248	0.15031620375	3
0	258	0.15882020375	2
0	258	0.15882020375	3
0	277	0.16732420375	2
0	294	0.176621680585	3
0	306	0.185125680585	2
0	306	0.185125680585	3
0	325	0.193629680585	2
0	344	0.203690215556	3
0	350	0.212194215556	2
0	367	0.21250978861	3
0	381	0.22101378861	2
0	390	0.226141055911	3
0	398	0.234645055911	2
0	415	0.241443788338	3
0	430	0.249947788338	2
0	438	0.251911642679	3
0	446	0.260415642679	2
0	463	0.261161658581	3
0	477	0.269665658581	2
0	486	0.278218034742	3
0	498	0.286722034742	2
0	498	0.286722034742	3
0	525	0.295226034742	2
0	525	0.295226034742	3
0	544	0.303730034742	2
0	544	0.303730034742	3
0	577	0.312234034742	2
0	577	0.312234034742	3
0	608	0.320738034742	2
0	608	0.320738034742	3
0	633	0.329242034742	2
0	633	0.329242034742	3
0	652	0.337746034742	2
0	652	0.337746034742	3
0	673	0.346250034742	2
0	673	0.346250034742	3
0	696	0.354754034742	2
0	696	0.354754034742	3
0	721	0.363258034742	2
0	721	0.363258034742	3
0	740	0.371762034742	2
0	740	0.371762034742	3
0	765	0.380266034742	2
0	765	0.380266034742	3
0	784	0.388770034742	2
0	784	0.388770034742	3
0	805	0.397274034742	2
0	822	0.400388501443	3
0	834	0.408892501443	2
0	834	0.408892501443	3
0	853	0.417396501443	2
0	872	0.443645800365	3
0	878	0.452149800365	2
0	895	0.456351809943	3
0	918	0.464855809943	2
0	918	0.464855809943	3
0	929	0.473359809943	2
0	929	0.473359809943	3
0	953	0.481863809943	2
0	953	0.481863809943	3
0	972	0.490367809943	2
0	989	0.491823022072	3
0	1013	0.500327022072	2
0	1013	0.500327022072	3
0	1024	0.508831022072	2
0	1024	0.508831022072	3
0	1049	0.517335022072	2
0	1049	0.517335022072	3
0	1068	0.525839022072	2
0	1101	0.547396382404	3
0	1107	0.555900382404	2
0	1124	0.560090299364	3
0	1139	0.568594299364	2
0	1147	0.572186530309	3
0	1155	0.580690530309	2
0	1186	0.636507734512	3
0	1192	0.645011734512	2
0	1209	0.646970724756	3
0	1228	0.655474724756	2
0	1228	0.655474724756	3
0	1243	0.663978724756	2
0	1243	0.663978724756	3
0	1263	0.672482724756	2
0	1279	0.672839241789	3
0	1290	0.681343241789	2
0	1290	0.681343241789	3
0	1311	0.689847241789	2
0	1327	0.691267276166	3
0	1338	0.699771276166	2
0	1338	0.699771276166	3
0	1359	0.708275276166	2
0	1376	0.713925570285	3
0	1384	0.722429570285	2
0	1415	0.749771848987	3
0	1421	0.758275848987	2
0	1438	0.762807081558	3
0	1457	0.771311081558	2
0	1457	0.771311081558	3
0	1472	0.779815081558	2
0	1472	0.779815081558	3
0	1496	0.788319081558	2
0	1496	0.788319081558	3
0	1515	0.796823081558	2
0	1548	0.830993112566	3
0	1554	0.839497112566	2
0	1584	0.856256968176	3
0	1591	0.864760968176	2
0	1608	0.864807971296	3
0	1634	0.873311971296	2
0	1634	0.873311971296	3
0	1649	0.881815971296	2
0	1649	0.881815971296	3
0	1670	0.890319971296	2
0	1670	0.890319971296	3
0	1689	0.898823971296	2
0	1689	0.898823971296	3
0	1710	0.907327971296	2
0	1729	0.926630920731	3
0	1739	0.935134920731	2
0	1739	0.935134920731	3
0	1762	0.943638920731	2
0	1762	0.943638920731	3
0	1781	0.952142920731	2
0	1800	0.953846192005	3
0	1815	0.962350192005	2
0	1825	0.979337038369	3
0	1831	0.987841038369	2
0	1862	1.009383979766	3
0	1872	1.017887979766	2
0	1872	1.017887979766	3
0	1895	1.026391979766	2
0	1895	1.026391979766	3
0	1914	1.034895979766	2
0	1946	1.046349733606	3
0	1953	1.054853733606	2
0	1970	1.054884708853	3
0	1984	1.063388708853	2
0	1995	1.084711697137	3
0	2001	1.093215697137	2
0	2032	1.115195351233	3
0	2050	1.123699351233	2
0	2050	1.123699351233	3
0	2069	1.132203351233	2
0	2069	1.132203351233	3
0	2088	1.140707351233	2
0	2088	1.140707351233	3
0	2113	1.149211351233	2
0	2113	1.149211351233	3
0	2136	1.157715351233	2
0	2136	1.157715351233	3
0	2157	1.166219351233	2
0	2176	1.177018180335	3
0	2186	1.185522180335	2
0	2186	1.185522180335	3
0	2209	1.194026180335	2
0	2209	1.194026180335	3
0	2236	1.202530180335	2
0	2236	1.202530180335	3
0	2265	1.211034180335	2
0	2265	1.211034180335	3
0	2288	1.219538180335	2
0	2288	1.219538180335	3
0	2309	1.228042180335	2
0	2309	1.228042180335	3
0	2336	1.236546180335	2
0	2336	1.236546180335	3
0	2361	1.245050180335	2
0	2361	1.245050180335	3
0	2380	1.253554180335	2
0	2380	1.253554180335	3
0	2405	1.262058180335	2
0	2405	1.262058180335	3
0	2428	1.270562180335	2
0	2428	1.270562180335	3
0	2449	1.279066180335	2
0	2449	1.279066180335	3
0	2468	1.287570180335	2
0	2487	1.291819591578	3
0	2502	1.300323591578	2
0	2510	1.304043496338	3
0	2518	1.312547496338	2
0	2548	1.33070157912	3
0	2555	1.33920557912	2
0	2572	1.344376874682	3
0	2591	1.352880874682	2
0	2591	1.352880874682	3
0	2602	1.361384874682	2
0	2634	1.397649506413	3
0	2644	1.406153506413	2
0	2644	1.406153506413	3
0	2663	1.414657506413	2
0	2680	1.416613648884	3
0	2692	1.425117648884	2
0	2692	1.425117648884	3
0	2711	1.433621648884	2
0	2728	1.436485703045	3
0	2744	1.444989703045	2
0	2744	1.444989703045	3
0	2763	1.453493703045	2
0	2763	1.453493703045	3
0	2782	1.461997703045	2
0	2815	1.484815940304	3
0	2821	1.493319940304	2
0	2838	1.495470277229	3
0	2853	1.503974277229	2
0	2861	1.508404295839	3
0	2869	1.516908295839	2
0	2886	1.517546709095	3
0	2904	1.526050709095	2
0	2904	1.526050709095	3
0	2919	1.534554709095	2
0	2919	1.534554709095	3
0	2944	1.543058709095	2
0	2944	1.543058709095	3
0	2967	1.551562709095	2
0	2967	1.551562709095	3
0	2992	1.560066709095	2
0	2992	1.560066709095	3
0	3011	1.568570709095	2
0	3028	1.568751879655	3
0	3048	1.577255879655	2
0	3048	1.577255879655	3
0	3063	1.585759879655	2
0	3063	1.585759879655	3
0	3084	1.594263879655	2
0	3100	1.595227235163	3
0	3107	1.603731235163	2
0	3139	1.620516606422	3
0	3158	1.629020606422	2
0	3158	1.629020606422	3
0	3177	1.637524606422	2
0	3177	1.637524606422	3
0	3204	1.646028606422	2
0	3204	1.646028606422	3
0	3225	1.654532606422	2
0	3225	1.654532606422	3
0	3244	1.663036606422	2
0	3244	1.663036606422	3
0	3265	1.671540606422	2
0	3282	1.679938071424	3
0	3298	1.688442071424	2
0	3298	1.688442071424	3
0	3325	1.696946071424	2
0	3325	1.696946071424	3
0	3344	1.705450071424	2
0	3344	1.705450071424	3
0	3365	1.713954071424	2
0	3365	1.713954071424	3
0	3384	1.722458071424	2
0	3416	1.740293698477	3
0	3427	1.748797698477	2
0	3427	1.748797698477	3
0	3450	1.757301698477	2
0	3450	1.757301698477	3
0	3477	1.765805698477	2
0	3477	1.765805698477	3
0	3502	1.774309698477	2
0	3502	1.774309698477	3
0	3525	1.782813698477	2
0	3525	1.782813698477	3
0	3546	1.791317698477	2
0	3546	1.791317698477	3
0	3569	1.799821698477	2
0	3569	1.799821698477	3
0	3590	1.808325698477	2
0	3609	1.82463349594	3
0	3619	1.83313749594	2
0	3619	1.83313749594	3
0	3646	1.84164149594	2
0	3646	1.84164149594	3
0	3665	1.85014549594	2
0	3665	1.85014549594	3
0	3690	1.85864949594	2
0	3690	1.85864949594	3
0	3709	1.86715349594	2
0	3741	1.877944088658	3
0	3756	1.886448088658	2
0	3756	1.886448088658	3
0	3779	1.894952088658	2
0	3779	1.894952088658	3
0	3798	1.903456088658	2
0	3798	1.903456088658	3
0	3819	1.911960088658	2
0	3838	1.935117218811	3
0	3848	1.943621218811	2
0	3848	1.943621218811	3
0	3875	1.952125218811	2
0	3875	1.952125218811	3
0	3906	1.960629218811	2
0	3906	1.960629218811	3
0	3927	1.969133218811	2
0	3927	1.969133218811	3
0	3950	1.977637218811	2
0	3950	1.977637218811	3
0	3971	1.986141218811	2
0	3971	1.986141218811	3
0	3990	1.994645218811	2
0	3990	1.994645218811	3
0	4011	2.003149218811	2
0	4028	2.008682702821	3
0	4036	2.017186702821	2
0	4053	2.025318199045	3
0	4072	2.033822199045	2
0	4072	2.033822199045	3
0	4087	2.042326199045	2
0	4087	2.042326199045	3
0	4119	2.050830199045	2
0	4119	2.050830199045	3
0	4142	2.059334199045	2
0	4142	2.059334199045	3
0	4163	2.067838199045	2
0	4163	2.067838199045	3
0	4182	2.076342199045	2
0	4182	2.076342199045	3
0	4207	2.084846199045	2
0	4207	2.084846199045	3
0	4226	2.093350199045	2
0	4259	2.114953076649	3
0	4265	2.123457076649	2
0	4282	2.126198741262	3
0	4297	2.134702741262	2
0	4305	2.13709430959	3
0	4313	2.14559830959	2
0	4342	2.155464284305	3
0	4353	2.163968284305	2
0	4353	2.163968284305	3
0	4377	2.172472284305	2
0	4377	2.172472284305	3
0	4400	2.180976284305	2
0	4400	2.180976284305	3
0	4421	2.189480284305	2
0	4440	2.237364121944	3
0	4450	2.245868121944	2
0	4450	2.245868121944	3
0	4469	2.254372121944	2
0	4485	2.254734893547	3
0	4492	2.263238893547	2
0	4524	2.278700957157	3
0	4531	2.287204957157	2
0	4548	2.295377081922	3
0	4563	2.303881081922	2
0	4573	2.335432293928	3
0	4579	2.343936293928	2
0	4596	2.345128054569	3
0	4618	2.353632054569	2
0	4618	2.353632054569	3
0	4633	2.362136054569	2
0	4633	2.362136054569	3
0	4658	2.370640054569	2
0	4658	2.370640054569	3
0	4681	2.379144054569	2
0	4681	2.379144054569	3
0	4702	2.387648054569	2
0	4702	2.387648054569	3
0	4721	2.396152054569	2
0	4753	2.413484220935	3
0	4760	2.421988220935	2
0	4777	2.427177875769	3
0	4800	2.435681875769	2
0	4800	2.435681875769	3
0	4815	2.444185875769	2
0	4815	2.444185875769	3
0	4835	2.452689875769	2
0	4835	2.452689875769	3
0	4854	2.461193875769	2
0	4871	2.462518001412	3
0	4887	2.471022001412	2
0	4898	2.507478336778	3
0	4904	2.515982336778	2
0	4921	2.519015611637	3
0	4936	2.527519611637	2
0	4944	2.528399320288	3
0	4951	2.536903320288	2
0	4982	2.551539641931	3
0	4989	2.560043641931	2
0	5006	2.567882822623	3
0	5025	2.576386822623	2
0	5025	2.576386822623	3
0	5036	2.584890822623	2
0	5054	2.589261857957	3
0	5069	2.597765857957	2
0	5077	2.600470581948	3
0	5085	2.608974581948	2
0	5102	2.615521021189	3
0	5121	2.624025021189	2
0	5121	2.624025021189	3
0	5136	2.632529021189	2
0	5136	2.632529021189	3
0	5156	2.641033021189	2
0	5175	2.658861194437	3
0	5189	2.667365194437	2
0	5189	2.667365194437	3
0	5208	2.675869194437	2
0	5208	2.675869194437	3
0	5227	2.684373194437	2
0	5246	2.689359323221	3
0	5261	2.697863323221	2
0	5271	2.717533448358	3
0	5277	2.726037448358	2
0	5294	2.729987649264	3
0	5313	2.738491649264	2
0	5313	2.738491649264	3
0	5332	2.746995649264	2
0	5332	2.746995649264	3
0	5360	2.755499649264	2
0	5360	2.755499649264	3
0	5379	2.764003649264	2
0	5379	2.764003649264	3
0	5400	2.772507649264	2
0	5400	2.772507649264	3
0	5423	2.781011649264	2
0	5423	2.781011649264	3
0	5444	2.789515649264	2
0	5461	2.794292667356	3
0	5473	2.802796667356	2
0	5473	2.802796667356	3
0	5496	2.811300667356	2
0	5496	2.811300667356	3
0	5515	2.819804667356	2
0	5534	2.82818319492	3
0	5553	2.83668719492	2
0	5553	2.83668719492	3
0	5564	2.84519119492	2
0	5595	2.85678383632	3
0	5606	2.86528783632	2
0	5606	2.86528783632	3
0	5625	2.87379183632	2
0	5644	2.899186135035	3
0	5654	2.907690135035	2
0	5654	2.907690135035	3
0	5673	2.916194135035	2
0	5690	2.921764607637	3
0	5702	2.930268607637	2
0	5702	2.930268607637	3
0	5721	2.938772607637	2
0	5737	2.93949877175	3
0	5744	2.94800277175	2
0	5763	2.951969239389	3
0	5786	2.960473239389	2
0	5786	2.960473239389	3
0	5797	2.968977239389	2
0	5797	2.968977239389	3
0	5821	2.977481239389	2
0	5821	2.977481239389	3
0	5840	2.985985239389	2
0	5859	2.993621644573	3
0	5874	3.002125644573	2
0	5883	3.007103170568	3
0	5898	3.015607170568	2
0	5898	3.015607170568	3
0	5917	3.024111170568	2
0	5917	3.024111170568	3
0	5940	3.032615170568	2
0	5940	3.032615170568	3
0	5965	3.041119170568	2
0	5965	3.041119170568	3
0	5984	3.049623170568	2
0	6003	3.057416293226	3
0	6030	3.065920293226	2
0	6030	3.065920293226	3
0	6041	3.074424293226	2
0	6041	3.074424293226	3
0	6069	3.082928293226	2
0	6069	3.082928293226	3
0	6088	3.091432293226	2
0	6088	3.091432293226	3
0	6117	3.099936293226	2
0	6117	3.099936293226	3
0	6140	3.108440293226	2
0	6140	3.108440293226	3
0	6165	3.116944293226	2
0	6165	3.116944293226	3
0	6184	3.125448293226	2
0	6184	3.125448293226	3
0	6213	3.133952293226	2
0	6213	3.133952293226	3
0	6240	3.142456293226	2
0	6240	3.142456293226	3
0	6261	3.150960293226	2
0	6261	3.150960293226	3
0	6288	3.159464293226	2
0	6288	3.159464293226	3
0	6317	3.167968293226	2
0	6317	3.167968293226	3
0	6336	3.176472293226	2
0	6336	3.176472293226	3
0	6357	3.184976293226	2
0	6357	3.184976293226	3
0	6380	3.193480293226	2
0	6380	3.193480293226	3
0	6401	3.201984293226	2
0	6401	3.201984293226	3
0	6420	3.210488293226	2
0	6420	3.210488293226	3
0	6441	3.218992293226	2
0	6460	3.235637602849	3
0	6466	3.244141602849	2
0	6483	3.250225888529	3
0	6502	3.258729888529	2
0	6502	3.258729888529	3
0	6517	3.267233888529	2
0	6517	3.267233888529	3
0	6541	3.275737888529	2
0	6541	3.275737888529	3
0	6560	3.284241888529	2
0	6579	3.290261081559	3
0	6594	3.298765081559	2
0	6602	3.301452423822	3
0	6614	3.309956423822	2
0	6614	3.309956423822	3
0	6637	3.318460423822	2
0	6637	3.318460423822	3
0	6656	3.326964423822	2
0	6688	3.337027430445	3
0	6699	3.345531430445	2
0	6699	3.345531430445	3
0	6718	3.354035430445	2
0	6735	3.360247898417	3
0	6747	3.368751898417	2
0	6747	3.368751898417	3
0	6766	3.377255898417	2
0	6783	3.383032573813	3
0	6795	3.391536573813	2
0	6795	3.391536573813	3
0	6814	3.400040573813	2
0	6833	3.413642967983	3
0	6843	3.422146967983	2
0	6843	3.422146967983	3
0	6862	3.430650967983	2
0	6879	3.434047032374	3
0	6887	3.442551032374	2
0	6918	3.477962920343	3
0	6924	3.486466920343	2
0	6954	3.501755907198	3
0	6961	3.510259907198	2
0	6990	3.519948734356	3
0	6997	3.528452734356	2
0	7029	3.570371047471	3
0	7035	3.578875047471	2
0	7052	3.587179155835	3
0	7075	3.595683155835	2
0	7075	3.595683155835	3
0	7094	3.604187155835	2
0	7094	3.604187155835	3
0	7118	3.612691155835	2
0	7118	3.612691155835	3
0	7145	3.621195155835	2
0	7145	3.621195155835	3
0	7166	3.629699155835	2
0	7166	3.629699155835	3
0	7185	3.638203155835	2
0	7185	3.638203155835	3
0	7206	3.646707155835	2
0	7206	3.646707155835	3
0	7225	3.655211155835	2
0	7244	3.663355801921	3
0	7263	3.671859801921	2
0	7263	3.671859801921	3
0	7278	3.680363801921	2
0	7278	3.680363801921	3
0	7302	3.688867801921	2
0	7302	3.688867801921	3
0	7321	3.697371801921	2
0	7340	3.703429835309	3
0	7359	3.711933835309	2
0	7359	3.711933835309	3
0	7374	3.720437835309	2
0	7374	3.720437835309	3
0	7402	3.728941835309	2
0	7402	3.728941835309	3
0	7421	3.737445835309	2
0	7421	3.737445835309	3
0	7446	3.745949835309	2
0	7446	3.745949835309	3
0	7465	3.754453835309	2
0	7498	3.774753030799	3
0	7508	3.783257030799	2
0	7508	3.783257030799	3
0	7527	3.791761030799	2
0	7546	3.81613337708	3
0	7556	3.82463737708	2
0	7556	3.82463737708	3
0	7583	3.83314137708	2
0	7583	3.83314137708	3
0	7602	3.84164537708	2
0	7602	3.84164537708	3
0	7623	3.85014937708	2
0	7640	3.855542552587	3
0	7652	3.864046552587	2
0	7652	3.864046552587	3
0	7671	3.872550552587	2
0	7687	3.872581250322	3
0	7694	3.881085250322	2
0	7726	3.89253683969	3
0	7737	3.90104083969	2
0	7737	3.90104083969	3
0	7756	3.90954483969	2
0	7773	3.916066003285	3
0	7781	3.924570003285	2
0	7811	3.937301441164	3
0	7826	3.945805441164	2
0	7826	3.945805441164	3
0	7849	3.954309441164	2
0	7849	3.954309441164	3
0	7872	3.962813441164	2
0	7872	3.962813441164	3
0	7897	3.971317441164	2
0	7897	3.971317441164	3
0	7920	3.979821441164	2
0	7920	3.979821441164	3
0	7945	3.988325441164	2
0	7945	3.988325441164	3
0	7968	3.996829441164	2
0	7968	3.996829441164	3
0	7993	4.005333441164	2
0	7993	4.005333441164	3
0	8012	4.013837441164	2
0	8012	4.013837441164	3
0	8037	4.022341441164	2
0	8037	4.022341441164	3
0	8060	4.030845441164	2
0	8060	4.030845441164	3
0	8081	4.039349441164	2
0	8098	4.048468178279	3
0	8106	4.056972178279	2
0	8123	4.057012275066	3
0	8141	4.065516275066	2
0	8141	4.065516275066	3
0	8160	4.074020275066	2
0	8160	4.074020275066	3
0	8181	4.082524275066	2
0	8181	4.082524275066	3
0	8200	4.091028275066	2
0	8219	4.096369917771	3
0	8234	4.104873917771	2
0	8243	4.110094205218	3
0	8262	4.118598205218	2
0	8262	4.118598205218	3
0	8281	4.127102205218	2
0	8281	4.127102205218	3
0	8300	4.135606205218	2
0	8300	4.135606205218	3
0	8329	4.144110205218	2
0	8329	4.144110205218	3
0	8348	4.152614205218	2
0	8348	4.152614205218	3
0	8373	4.161118205218	2
0	8373	4.161118205218	3
0	8392	4.169622205218	2
0	8425	4.191104568732	3
0	8431	4.199608568732	2
0	8448	4.206175290544	3
0	8467	4.214679290544	2
0	8467	4.214679290544	3
0	8482	4.223183290544	2
0	8482	4.223183290544	3
0	8502	4.231687290544	2
0	8521	4.247599084151	3
0	8531	4.256103084151	2
0	8531	4.256103084151	3
0	8558	4.264607084151	2
0	8558	4.264607084151	3
0	8581	4.273111084151	2
0	8581	4.273111084151	3
0	8602	4.281615084151	2
0	8602	4.281615084151	3
0	8621	4.290119084151	2
0	8638	4.290471354355	3
0	8654	4.298975354355	2
0	8663	4.300226134689	3
0	8678	4.308730134689	2
0	8678	4.308730134689	3
0	8702	4.317234134689	2
0	8702	4.317234134689	3
0	8721	4.325738134689	2
0	8721	4.325738134689	3
0	8754	4.334242134689	2
0	8754	4.334242134689	3
0	8781	4.342746134689	2
0	8781	4.342746134689	3
0	8810	4.351250134689	2
0	8810	4.351250134689	3
0	8829	4.359754134689	2
0	8829	4.359754134689	3
0	8850	4.368258134689	2
0	8850	4.368258134689	3
0	8869	4.376762134689	2
0	8869	4.376762134689	3
0	8898	4.385266134689	2
0	8898	4.385266134689	3
0	8917	4.393770134689	2
0	8917	4.393770134689	3
0	8942	4.402274134689	2
0	8942	4.402274134689	3
0	8961	4.410778134689	2
0	8961	4.410778134689	3
0	8982	4.419282134689	2
0	8999	4.422491790324	3
0	9015	4.430995790324	2
0	9015	4.430995790324	3
0	9038	4.439499790324	2
0	9038	4.439499790324	3
0	9057	4.448003790324	2
0	9057	4.448003790324	3
0	9082	4.456507790324	2
0	9082	4.456507790324	3
0	9109	4.465011790324	2
0	9109	4.465011790324	3
0	9130	4.473515790324	2
0	9130	4.473515790324	3
0	9153	4.482019790324	2
0	9153	4.482019790324	3
0	9174	4.490523790324	2
0	9191	4.497142440849	3
0	9211	4.505646440849	2
0	9211	4.505646440849	3
0	9234	4.514150440849	2
0	9234	4.514150440849	3
0	9253	4.522654440849	2
0	9253	4.522654440849	3
0	9274	4.531158440849	2
0	9274	4.531158440849	3
0	9293	4.539662440849	2
0	9325	4.550141536884	3
0	9332	4.558645536884	2
0	9349	4.559933759652	3
0	9367	4.568437759652	2
0	9367	4.568437759652	3
0	9382	4.576941759652	2
0	9382	4.576941759652	3
0	9403	4.585445759652	2
0	9422	4.596683786519	3
0	9432	4.605187786519	2
0	9432	4.605187786519	3
0	9451	4.613691786519	2
0	9470	4.657344237931	3
0	9484	4.665848237931	2
0	9484	4.665848237931	3
0	9507	4.674352237931	2
0	9507	4.674352237931	3
0	9526	4.682856237931	2
0	9526	4.682856237931	3
0	9547	4.691360237931	2
0	9566	4.707430854816	3
0	9572	4.715934854816	2
0	9603	4.740558108284	3
0	9613	4.749062108284	2
0	9613	4.749062108284	3
0	9632	4.757566108284	2
0	9649	4.763285136582	3
0	9657	4.771789136582	2
0	9674	4.779553758748	3
0	9697	4.788057758748	2
0	9697	4.788057758748	3
0	9712	4.796561758748	2
0	9712	4.796561758748	3
0	9736	4.805065758748	2
0	9736	4.805065758748	3
0	9759	4.813569758748	2
0	9759	4.813569758748	3
0	9780	4.822073758748	2
0	9780	4.822073758748	3
0	9803	4.830577758748	2
0	9803	4.830577758748	3
0	9824	4.839081758748	2
0	9840	4.839221654458	3
0	9847	4.847725654458	2
0	9866	4.852905000981	3
0	9881	4.861409000981	2
0	9889	4.864179024811	3
0	9917	4.872683024811	2
0	9917	4.872683024811	3
0	9936	4.881187024811	2
0	9936	4.881187024811	3
0	9955	4.889691024811	2
0	9955	4.889691024811	3
0	9980	4.898195024811	2
0	9980	4.898195024811	3
0	10003	4.906699024811	2
0	10003	4.906699024811	3
0	10028	4.915203024811	2
0	10028	4.915203024811	3
0	10051	4.923707024811	2
0	10051	4.923707024811	3
0	10072	4.932211024811	2
0	10072	4.932211024811	3
0	10099	4.940715024811	2
0	10099	4.940715024811	3
0	10124	4.949219024811	2
0	10124	4.949219024811	3
0	10143	4.957723024811	2
0	10143	4.957723024811	3
0	10168	4.966227024811	2
0	10168	4.966227024811	3
0	10191	4.974731024811	2
0	10191	4.974731024811	3
0	10216	4.983235024811	2
0	10216	4.983235024811	3
0	10235	4.991739024811	2
0	10235	4.991739024811	3
0	10256	5.000243024811	2
0	10275	5.02333767368	3
0	10285	5.03184167368	2
0	10285	5.03184167368	3
0	10316	5.04034567368	2
0	10316	5.04034567368	3
0	10335	5.04884967368	2
0	10335	5.04884967368	3
0	10356	5.05735367368	2
0	10356	5.05735367368	3
0	10379	5.06585767368	2
0	10379	5.06585767368	3
0	10400	5.07436167368	2
0	10417	5.078459817416	3
0	10425	5.086963817416	2
0	10442	5.090720437585	3
0	10461	5.099224437585	2
0	10461	5.099224437585	3
0	10476	5.107728437585	2
0	10476	5.107728437585	3
0	10496	5.116232437585	2
0	10513	5.120153448829	3
0	10525	5.128657448829	2
0	10525	5.128657448829	3
0	10548	5.137161448829	2
0	10548	5.137161448829	3
0	10571	5.145665448829	2
0	10571	5.145665448829	3
0	10596	5.154169448829	2
0	10596	5.154169448829	3
0	10615	5.162673448829	2
0	10648	5.184035463062	3
0	10654	5.192539463062	2
0	10684	5.20712032591	3
0	10695	5.21562432591	2
0	10695	5.21562432591	3
0	10718	5.22412832591	2
0	10718	5.22412832591	3
0	10737	5.23263232591	2
0	10769	5.24283184969	3
0	10776	5.25133584969	2
0	10793	5.258915161234	3
0	10812	5.267419161234	2
0	10812	5.267419161234	3
0	10823	5.275923161234	2
0	10855	5.307674791215	3
0	10865	5.316178791215	2
0	10865	5.316178791215	3
0	10888	5.324682791215	2
0	10888	5.324682791215	3
0	10907	5.333186791215	2
0	10926	5.335274572258	3
0	10945	5.343778572258	2
0	10945	5.343778572258	3
0	10956	5.352282572258	2
0	10988	5.375658368749	3
0	10998	5.384162368749	2
0	10998	5.384162368749	3
0	11021	5.392666368749	2
0	11021	5.392666368749	3
0	11044	5.401170368749	2
0	11044	5.401170368749	3
0	11065	5.409674368749	2
0	11084	5.426615755098	3
0	11102	5.435119755098	2
0	11102	5.435119755098	3
0	11125	5.443623755098	2
0	11125	5.443623755098	3
0	11144	5.452127755098	2
0	11144	5.452127755098	3
0	11165	5.460631755098	2
0	11165	5.460631755098	3
0	11184	5.469135755098	2
0	11201	5.469314401828	3
0	11221	5.477818401828	2
0	11221	5.477818401828	3
0	11236	5.486322401828	2
0	11236	5.486322401828	3
0	11257	5.494826401828	2
0	11276	5.510300217269	3
0	11286	5.518804217269	2
0	11286	5.518804217269	3
0	11313	5.527308217269	2
0	11313	5.527308217269	3
0	11340	5.535812217269	2
0	11340	5.535812217269	3
0	11361	5.544316217269	2
0	11361	5.544316217269	3
0	11384	5.552820217269	2
0	11384	5.552820217269	3
0	11405	5.561324217269	2
0	11405	5.561324217269	3
0	11428	5.569828217269	2
0	11428	5.569828217269	3
0	11453	5.578332217269	2
0	11453	5.578332217269	3
0	11476	5.586836217269	2
0	11476	5.586836217269	3
0	11497	5.595340217269	2
0	11516	5.60716824394	3
0	11526	5.61567224394	2
0	11526	5.61567224394	3
0	11545	5.62417624394	2
0	11562	5.628463042899	3
0	11570	5.636967042899	2
0	11587	5.638188960665	3
0	11605	5.646692960665	2
0	11605	5.646692960665	3
0	11620	5.655196960665	2
0	11620	5.655196960665	3
0	11645	5.663700960665	2
0	11645	5.663700960665	3
0	11680	5.672204960665	2
0	11680	5.672204960665	3
0	11701	5.680708960665	2
0	11701	5.680708960665	3
0	11724	5.689212960665	2
0	11724	5.689212960665	3
0	11745	5.697716960665	2
0	11745	5.697716960665	3
0	11768	5.706220960665	2
0	11768	5.706220960665	3
0	11793	5.714724960665	2
0	11793	5.714724960665	3
0	11816	5.723228960665	2
0	11816	5.723228960665	3
0	11841	5.731732960665	2
0	11841	5.731732960665	3
0	11860	5.740236960665	2
0	11860	5.740236960665	3
0	11885	5.748740960665	2
0	11885	5.748740960665	3
0	11912	5.757244960665	2
0	11912	5.757244960665	3
0	11933	5.765748960665	2
0	11933	5.765748960665	3
0	11952	5.774252960665	2
0	11984	5.789703219809	3
0	11999	5.798207219809	2
0	11999	5.798207219809	3
0	12018	5.806711219809	2
0	12018	5.806711219809	3
0	12037	5.815215219809	2
0	12070	5.837530314119	3
0	12088	5.846034314119	2
0	12088	5.846034314119	3
0	12107	5.854538314119	2
0	12107	5.854538314119	3
0	12130	5.863042314119	2
0	12130	5.863042314119	3
0	12151	5.871546314119	2
0	12151	5.871546314119	3
0	12170	5.880050314119	2
0	12203	5.901004659846	3
0	12213	5.909508659846	2
0	12213	5.909508659846	3
0	12232	5.918012659846	2
0	12251	5.946939515039	3
0	12261	5.955443515039	2
0	12261	5.955443515039	3
0	12280	5.963947515039	2
0	12297	5.973525212147	3
0	12305	5.982029212147	2
0	12322	5.988322276874	3
0	12341	5.996826276874	2
0	12341	5.996826276874	3
0	12352	6.005330276874	2
0	12383	6.019257191921	3
0	12394	6.027761191921	2
0	12394	6.027761191921	3
0	12421	6.036265191921	2
0	12421	6.036265191921	3
0	12440	6.044769191921	2
0	12440	6.044769191921	3
0	12461	6.053273191921	2
0	12480	6.077146741567	3
0	12490	6.085650741567	2
0	12490	6.085650741567	3
0	12509	6.094154741567	2
0	12528	6.107172444793	3
0	12538	6.115676444793	2
0	12538	6.115676444793	3
0	12557	6.124180444793	2
0	12576	6.138380975016	3
0	12582	6.146884975016	2
0	12599	6.147001365039	3
0	12613	6.155505365039	2
0	12621	6.155576975288	3
0	12632	6.164080975288	2
0	12632	6.164080975288	3
0	12657	6.172584975288	2
0	12657	6.172584975288	3
0	12676	6.181088975288	2
0	12709	6.205250229432	3
0	12715	6.213754229432	2
0	12745	6.232053907645	3
0	12752	6.240557907645	2
0	12769	6.245619394025	3
0	12784	6.254123394025	2
0	12792	6.257846832198	3
0	12800	6.266350832198	2
0	12817	6.267385306231	3
0	12839	6.275889306231	2
0	12839	6.275889306231	3
0	12850	6.284393306231	2
0	12850	6.284393306231	3
0	12871	6.292897306231	2
0	12888	6.296412410231	3
0	12896	6.304916410231	2
0	12913	6.308508572717	3
0	12932	6.317012572717	2
0	12932	6.317012572717	3
0	12951	6.325516572717	2
0	12951	6.325516572717	3
0	12975	6.334020572717	2
0	12975	6.334020572717	3
0	12998	6.342524572717	2
0	12998	6.342524572717	3
0	13027	6.351028572717	2
0	13027	6.351028572717	3
0	13050	6.359532572717	2
0	13050	6.359532572717	3
0	13071	6.368036572717	2
0	13071	6.368036572717	3
0	13090	6.376540572717	2
0	13090	6.376540572717	3
0	13119	6.385044572717	2
0	13119	6.385044572717	3
0	13138	6.393548572717	2
0	13138	6.393548572717	3
0	13159	6.402052572717	2
0	13178	6.422822373844	3
0	13184	6.431326373844	2
0	13201	6.436911215486	3
0	13224	6.445415215486	2
0	13224	6.445415215486	3
0	13239	6.453919215486	2
0	13239	6.453919215486	3
0	13259	6.462423215486	2
0	13259	6.462423215486	3
0	13282	6.470927215486	2
0	13282	6.470927215486	3
0	13311	6.479431215486	2
0	13311	6.479431215486	3
0	13334	6.487935215486	2
0	13334	6.487935215486	3
0	13355	6.496439215486	2
0	13355	6.496439215486	3
0	13374	6.504943215486	2
0	13407	6.526245627924	3
0	13413	6.534749627924	2
0	13443	6.547781705292	3
0	13450	6.556285705292	2
0	13481	6.577333436525	3
0	13487	6.585837436525	2
0	13504	6.590539058891	3
0	13523	6.599043058891	2
0	13523	6.599043058891	3
0	13534	6.607547058891	2
0	13552	6.611376859502	3
0	13567	6.619880859502	2
0	13575	6.623926763015	3
0	13587	6.632430763015	2
0	13587	6.632430763015	3
0	13606	6.640934763015	2
0	13625	6.654519809075	3
0	13631	6.663023809075	2
0	13648	6.663902422152	3
0	13662	6.672406422152	2
0	13673	6.720619164514	3
0	13683	6.729123164514	2
0	13683	6.729123164514	3
0	13702	6.737627164514	2
0	13719	6.746136039627	3
0	13731	6.754640039627	2
0	13731	6.754640039627	3
0	13750	6.763144039627	2
0	13769	6.774594045572	3
0	13775	6.783098045572	2
0	13792	6.783889410408	3
0	13806	6.792393410408	2
0	13817	6.810081977079	3
0	13823	6.818585977079	2
0	13853	6.835535830561	3
0	13864	6.844039830561	2
0	13864	6.844039830561	3
0	13887	6.852543830561	2
0	13887	6.852543830561	3
0	13910	6.861047830561	2
0	13910	6.861047830561	3
0	13935	6.869551830561	2
0	13935	6.869551830561	3
0	13958	6.878055830561	2
0	13958	6.878055830561	3
0	13987	6.886559830561	2
0	13987	6.886559830561	3
0	14006	6.895063830561	2
0	14006	6.895063830561	3
0	14039	6.903567830561	2
0	14039	6.903567830561	3
0	14070	6.912071830561	2
0	14070	6.912071830561	3
0	14095	6.920575830561	2
0	14095	6.920575830561	3
0	14118	6.929079830561	2
0	14118	6.929079830561	3
0	14139	6.937583830561	2
0	14139	6.937583830561	3
0	14158	6.946087830561	2
0	14158	6.946087830561	3
0	14183	6.954591830561	2
0	14183	6.954591830561	3
0	14206	6.963095830561	2
0	14206	6.963095830561	3
0	14227	6.971599830561	2
0	14227	6.971599830561	3
0	14254	6.980103830561	2
0	14254	6.980103830561	3
0	14279	6.988607830561	2
0	14279	6.988607830561	3
0	14306	6.997111830561	2
0	14306	6.997111830561	3
0	14331	7.005615830561	2
0	14331	7.005615830561	3
0	14354	7.014119830561	2
0	14354	7.014119830561	3
0	14375	7.022623830561	2
0	14375	7.022623830561	3
0	14394	7.031127830561	2
0	14394	7.031127830561	3
0	14415	7.039631830561	2
0	14415	7.039631830561	3
0	14438	7.048135830561	2
0	14438	7.048135830561	3
0	14459	7.056639830561	2
0	14476	7.065040548472	3
0	14488	7.073544548472	2
0	14488	7.073544548472	3
0	14511	7.082048548472	2
0	14511	7.082048548472	3
0	14534	7.090552548472	2
0	14534	7.090552548472	3
0	14563	7.099056548472	2
0	14563	7.099056548472	3
0	14586	7.107560548472	2
0	14586	7.107560548472	3
0	14611	7.116064548472	2
0	14611	7.116064548472	3
0	14634	7.124568548472	2
0	14634	7.124568548472	3
0	14663	7.133072548472	2
0	14663	7.133072548472	3
0	14686	7.141576548472	2
0	14686	7.141576548472	3
0	14707	7.150080548472	2
0	14707	7.150080548472	3
0	14734	7.158584548472	2
0	14734	7.158584548472	3
0	14755	7.167088548472	2
0	14755	7.167088548472	3
0	14774	7.175592548472	2
0	14774	7.175592548472	3
0	14795	7.184096548472	2
0	14814	7.194471990986	3
0	14820	7.202975990986	2
0	14837	7.207554938024	3
0	14860	7.216058938024	2
0	14860	7.216058938024	3
0	14871	7.224562938024	2
0	14871	7.224562938024	3
0	14891	7.233066938024	2
0	14910	7.245597352266	3
0	14920	7.254101352266	2
0	14920	7.254101352266	3
0	14943	7.262605352266	2
0	14943	7.262605352266	3
0	14966	7.271109352266	2
0	14966	7.271109352266	3
0	14987	7.279613352266	2
0	15006	7.29482101956	3
0	15016	7.30332501956	2
0	15016	7.30332501956	3
0	15035	7.31182901956	2
0	15054	7.333231019829	3
0	15060	7.341735019829	2
0	15077	7.343991249868	3
0	15096	7.352495249868	2
0	15096	7.352495249868	3
0	15107	7.360999249868	2
0	15124	7.361555141641	3
0	15143	7.370059141641	2
0	15143	7.370059141641	3
0	15154	7.378563141641	2
0	15172	7.37964900499	3
0	15187	7.38815300499	2
0	15196	7.39232629692	3
0	15204	7.40083029692	2
0	15234	7.413018999546	3
0	15249	7.421522999546	2
0	15249	7.421522999546	3
0	15268	7.430026999546	2
0	15268	7.430026999546	3
0	15287	7.438530999546	2
0	15320	7.46976915897	3
0	15330	7.47827315897	2
0	15330	7.47827315897	3
0	15349	7.48677715897	2
0	15368	7.510199806629	3
0	15374	7.518703806629	2
0	15391	7.523578208878	3
0	15410	7.532082208878	2
0	15410	7.532082208878	3
0	15425	7.540586208878	2
0	15425	7.540586208878	3
0	15445	7.549090208878	2
0	15464	7.57500366075	3
0	15482	7.58350766075	2
0	15482	7.58350766075	3
0	15501	7.59201166075	2
0	15501	7.59201166075	3
0	15528	7.60051566075	2
0	15528	7.60051566075	3
0	15557	7.60901966075	2
0	15557	7.60901966075	3
0	15576	7.61752366075	2
0	15576	7.61752366075	3
0	15597	7.62602766075	2
0	15597	7.62602766075	3
0	15624	7.63453166075	2
0	15624	7.63453166075	3
0	15653	7.64303566075	2
0	15653	7.64303566075	3
0	15672	7.65153966075	2
0	15672	7.65153966075	3
0	15697	7.66004366075	2
0	15697	7.66004366075	3
0	15716	7.66854766075	2
0	15716	7.66854766075	3
0	15737	7.67705166075	2
0	15737	7.67705166075	3
0	15756	7.68555566075	2
0	15773	7.686411136594	3
0	15789	7.694915136594	2
0	15800	7.720329424241	3
0	15810	7.728833424241	2
0	15810	7.728833424241	3
0	15833	7.737337424241	2
0	15833	7.737337424241	3
0	15852	7.745841424241	2
0	15884	7.758544418795	3
0	15891	7.767048418795	2
0	15920	7.776764848576	3
0	15931	7.785268848576	2
0	15931	7.785268848576	3
0	15951	7.793772848576	2
0	15968	7.796994592516	3
0	15980	7.805498592516	2
0	15980	7.805498592516	3
0	15999	7.814002592516	2
0	16018	7.826992452984	3
0	16032	7.835496452984	2
0	16032	7.835496452984	3
0	16055	7.844000452984	2
0	16055	7.844000452984	3
0	16082	7.852504452984	2
0	16082	7.852504452984	3
0	16103	7.861008452984	2
0	16103	7.861008452984	3
0	16122	7.869512452984	2
0	16122	7.869512452984	3
0	16143	7.878016452984	2
0	16162	7.897165699269	3
0	16168	7.905669699269	2
0	16199	7.924393328308	3
0	16209	7.932897328308	2
0	16209	7.932897328308	3
0	16232	7.941401328308	2
0	16232	7.941401328308	3
0	16255	7.949905328308	2
0	16255	7.949905328308	3
0	16280	7.958409328308	2
0	16280	7.958409328308	3
0	16299	7.966913328308	2
0	16332	7.993271079953	3
0	16346	8.001775079953	2
0	16346	8.001775079953	3
0	16369	8.010279079953	2
0	16369	8.010279079953	3
0	16404	8.018783079953	2
0	16404	8.018783079953	3
0	16425	8.027287079953	2
0	16425	8.027287079953	3
0	16444	8.035791079953	2
0	16444	8.035791079953	3
0	16469	8.044295079953	2
0	16469	8.044295079953	3
0	16500	8.052799079953	2
0	16500	8.052799079953	3
0	16525	8.061303079953	2
0	16525	8.061303079953	3
0	16544	8.069807079953	2
0	16544	8.069807079953	3
0	16569	8.078311079953	2
0	16569	8.078311079953	3
0	16592	8.086815079953	2
0	16592	8.086815079953	3
0	16613	8.095319079953	2
0	16613	8.095319079953	3
0	16632	8.103823079953	2
0	16632	8.103823079953	3
0	16657	8.112327079953	2
0	16657	8.112327079953	3
0	16676	8.120831079953	2
0	16676	8.120831079953	3
0	16705	8.129335079953	2
0	16705	8.129335079953	3
0	16728	8.137839079953	2
0	16728	8.137839079953	3
0	16749	8.146343079953	2
0	16749	8.146343079953	3
0	16768	8.154847079953	2
0	16785	8.155303845578	3
0	16801	8.163807845578	2
0	16810	8.173246618996	3
0	16822	8.181750618996	2
0	16822	8.181750618996	3
0	16841	8.190254618996	2
0	16858	8.192226006808	3
0	16866	8.200730006808	2
0	16883	8.202120867486	3
0	16901	8.210624867486	2
0	16901	8.210624867486	3
0	16920	8.219128867486	2
0	16920	8.219128867486	3
0	16941	8.227632867486	2
0	16941	8.227632867486	3
0	16968	8.236136867486	2
0	16968	8.236136867486	3
0	16989	8.244640867486	2
0	16989	8.244640867486	3
0	17008	8.253144867486	2
0	17027	8.258313855068	3
0	17042	8.266817855068	2
0	17051	8.272066791489	3
0	17058	8.280570791489	2
0	17088	8.29869833775	3
0	17099	8.30720233775	2
0	17099	8.30720233775	3
0	17118	8.31570633775	2
0	17137	8.331930038065	3
0	17143	8.340434038065	2
0	17174	8.370059205523	3
0	17180	8.378563205523	2
0	17210	8.389153632683	3
0	17217	8.397657632683	2
0	17248	8.447204682072	3
0	17258	8.455708682072	2
0	17258	8.455708682072	3
0	17277	8.464212682072	2
0	17296	8.475104313479	3
0	17302	8.483608313479	2
0	17331	8.49277566783	3
0	17338	8.50127966783	2
0	17356	8.508073885261	3
0	17371	8.516577885261	2
0	17380	8.520116177916	3
0	17391	8.528620177916	2
0	17391	8.528620177916	3
0	17414	8.537124177916	2
0	17414	8.537124177916	3
0	17449	8.545628177916	2
0	17449	8.545628177916	3
0	17478	8.554132177916	2
0	17478	8.554132177916	3
0	17505	8.562636177916	2
0	17505	8.562636177916	3
0	17526	8.571140177916	2
0	17526	8.571140177916	3
0	17545	8.579644177916	2
0	17545	8.579644177916	3
0	17570	8.588148177916	2
0	17570	8.588148177916	3
0	17589	8.596652177916	2
0	17589	8.596652177916	3
0	17610	8.605156177916	2
0	17610	8.605156177916	3
0	17633	8.613660177916	2
0	17633	8.613660177916	3
0	17654	8.622164177916	2
0	17654	8.622164177916	3
0	17673	8.630668177916	2
0	17704	8.640104220043	3
0	17715	8.648608220043	2
0	17715	8.648608220043	3
0	17735	8.657112220043	2
0	17752	8.659925473703	3
0	17764	8.668429473703	2
0	17764	8.668429473703	3
0	17791	8.676933473703	2
0	17791	8.676933473703	3
0	17818	8.685437473703	2
0	17818	8.685437473703	3
0	17851	8.693941473703	2
0	17851	8.693941473703	3
0	17870	8.702445473703	2
0	17870	8.702445473703	3
0	17891	8.710949473703	2
0	17891	8.710949473703	3
0	17914	8.719453473703	2
0	17914	8.719453473703	3
0	17935	8.727957473703	2
0	17935	8.727957473703	3
0	17962	8.736461473703	2
0	17962	8.736461473703	3
0	17983	8.744965473703	2
0	17983	8.744965473703	3
0	18002	8.753469473703	2
0	18002	8.753469473703	3
0	18023	8.761973473703	2
0	18039	8.763139158918	3
0	18046	8.771643158918	2
0	18065	8.773540051766	3
0	18084	8.782044051766	2
0	18084	8.782044051766	3
0	18095	8.790548051766	2
0	18113	8.793181947834	3
0	18132	8.801685947834	2
0	18132	8.801685947834	3
0	18151	8.810189947834	2
0	18151	8.810189947834	3
0	18175	8.818693947834	2
0	18175	8.818693947834	3
0	18202	8.827197947834	2
0	18202	8.827197947834	3
0	18223	8.835701947834	2
0	18223	8.835701947834	3
0	18246	8.844205947834	2
0	18246	8.844205947834	3
0	18271	8.852709947834	2
0	18271	8.852709947834	3
0	18294	8.861213947834	2
0	18294	8.861213947834	3
0	18319	8.869717947834	2
0	18319	8.869717947834	3
0	18338	8.878221947834	2
0	18338	8.878221947834	3
0	18363	8.886725947834	2
0	18363	8.886725947834	3
0	18386	8.895229947834	2
0	18386	8.895229947834	3
0	18415	8.903733947834	2
0	18415	8.903733947834	3
0	18434	8.912237947834	2
0	18434	8.912237947834	3
0	18459	8.920741947834	2
0	18459	8.920741947834	3
0	18478	8.929245947834	2
0	18511	8.962740194827	3
0	18517	8.971244194827	2
0	18534	8.973996292214	3
0	18553	8.982500292214	2
0	18553	8.982500292214	3
0	18564	8.991004292214	2
0	18582	8.998248904479	3
0	18597	9.006752904479	2
0	18607	9.019970236617	3
0	18617	9.028474236617	2
0	18617	9.028474236617	3
0	18640	9.036978236617	2
0	18640	9.036978236617	3
0	18659	9.045482236617	2
0	18692	9.065958642333	3
0	18698	9.074462642333	2
0	18715	9.08132819821	3
0	18742	9.08983219821	2
0	18742	9.08983219821	3
0	18753	9.09833619821	2
0	18753	9.09833619821	3
0	18773	9.10684019821	2
0	18773	9.10684019821	3
0	18792	9.11534419821	2
0	18825	9.135676225668	3
0	18831	9.144180225668	2
0	18848	9.145950219557	3
0	18863	9.154454219557	2
0	18871	9.158333267992	3
0	18883	9.166837267992	2
0	18883	9.166837267992	3
0	18902	9.175341267992	2
0	18919	9.17699382465	3
0	18927	9.18549782465	2
0	18944	9.187173026368	3
0	18959	9.195677026368	2
0	18968	9.205056015408	3
0	18975	9.213560015408	2
0	19006	9.232699297928	3
0	19016	9.241203297928	2
0	19016	9.241203297928	3
0	19035	9.249707297928	2
0	19054	9.266000692313	3
0	19064	9.274504692313	2
0	19064	9.274504692313	3
0	19087	9.283008692313	2
0	19087	9.283008692313	3
0	19110	9.291512692313	2
0	19110	9.291512692313	3
0	19135	9.300016692313	2
0	19135	9.300016692313	3
0	19154	9.308520692313	2
0	19173	9.310926089199	3
0	19188	9.319430089199	2
0	19197	9.327398777269	3
0	19204	9.335902777269	2
0	19221	9.342735812796	3
0	19240	9.351239812796	2
0	19240	9.351239812796	3
0	19259	9.359743812796	2
0	19259	9.359743812796	3
0	19283	9.368247812796	2
0	19283	9.368247812796	3
0	19306	9.376751812796	2
0	19306	9.376751812796	3
0	19327	9.385255812796	2
0	19327	9.385255812796	3
0	19346	9.393759812796	2
0	19379	9.416373197676	3
0	19393	9.424877197676	2
0	19393	9.424877197676	3
0	19412	9.433381197676	2
0	19412	9.433381197676	3
0	19435	9.441885197676	2
0	19435	9.441885197676	3
0	19456	9.450389197676	2
0	19475	9.481700507008	3
0	19481	9.490204507008	2
0	19510	9.499984550372	3
0	19525	9.508488550372	2
0	19525	9.508488550372	3
0	19549	9.516992550372	2
0	19549	9.516992550372	3
0	19568	9.525496550372	2
0	19568	9.525496550372	3
0	19589	9.534000550372	2
0	19605	9.535325978639	3
0	19616	9.543829978639	2
0	19616	9.543829978639	3
0	19641	9.552333978639	2
0	19641	9.552333978639	3
0	19660	9.560837978639	2
0	19692	9.578980078214	3
0	19699	9.587484078214	2
0	19728	9.59673497991	3
0	19735	9.60523897991	2
0	19753	9.608064674935	3
0	19772	9.616568674935	2
0	19772	9.616568674935	3
0	19783	9.625072674935	2
0	19814	9.640268783912	3
0	19821	9.648772783912	2
0	19838	9.653713092905	3
0	19865	9.662217092905	2
0	19865	9.662217092905	3
0	19876	9.670721092905	2
0	19876	9.670721092905	3
0	19896	9.679225092905	2
0	19896	9.679225092905	3
0	19915	9.687729092905	2
0	19932	9.688628186305	3
0	19948	9.697132186305	2
0	19957	9.702805051088	3
0	19965	9.711309051088	2
0	19982	9.717460413211	3
0	19997	9.725964413211	2
0	20005	9.728338428538	3
0	20013	9.736842428538	2
0	20030	9.737584876387	3
0	20048	9.746088876387	2
0	20048	9.746088876387	3
0	20059	9.754592876387	2
0	20077	9.755882542356	3
0	20092	9.764386542356	2
0	20101	9.768621182152	3
0	20113	9.777125182152	2
0	20113	9.777125182152	3
0	20132	9.785629182152	2
0	20149	9.787463551914	3
0	20165	9.795967551914	2
0	20165	9.795967551914	3
0	20192	9.804471551914	2
0	20192	9.804471551914	3
0	20215	9.812975551914	2
0	20215	9.812975551914	3
0	20240	9.821479551914	2
0	20240	9.821479551914	3
0	20263	9.829983551914	2
0	20263	9.829983551914	3
0	20288	9.838487551914	2
0	20288	9.838487551914	3
0	20307	9.846991551914	2
0	20307	9.846991551914	3
0	20340	9.855495551914	2
0	20340	9.855495551914	3
0	20367	9.863999551914	2
0	20367	9.863999551914	3
0	20396	9.872503551914	2
0	20396	9.872503551914	3
0	20419	9.881007551914	2
0	20419	9.881007551914	3
0	20440	9.889511551914	2
0	20440	9.889511551914	3
0	20467	9.898015551914	2
0	20467	9.898015551914	3
0	20492	9.906519551914	2
0	20492	9.906519551914	3
0	20515	9.915023551914	2
0	20515	9.915023551914	3
0	20536	9.923527551914	2
0	20536	9.923527551914	3
0	20559	9.932031551914	2
0	20559	9.932031551914	3
0	20580	9.940535551914	2
0	20580	9.940535551914	3
0	20599	9.949039551914	2
0	20599	9.949039551914	3
0	20624	9.957543551914	2
0	20624	9.957543551914	3
0	20659	9.966047551914	2
0	20659	9.966047551914	3
0	20684	9.974551551914	2
0	20684	9.974551551914	3
0	20703	9.983055551914	2
0	20703	9.983055551914	3
0	20732	9.991559551914	2
0	20732	9.991559551914	3
0	20755	10.000063551914	2
0	20755	10.000063551914	3
0	20776	10.008567551914	2
0	20776	10.008567551914	3
0	20799	10.017071551914	2
0	20799	10.017071551914	3
0	20820	10.025575551914	2
0	20820	10.025575551914	3
0	20843	10.034079551914	2
0	20843	10.034079551914	3
0	20868	10.042583551914	2
0	20868	10.042583551914	3
0	20891	10.051087551914	2
0	20891	10.051087551914	3
0	20912	10.059591551914	2
0	20912	10.059591551914	3
0	20931	10.068095551914	2
0	20931	10.068095551914	3
0	20952	10.076599551914	2
0	20952	10.076599551914	3
0	20975	10.085103551914	2
0	20975	10.085103551914	3
0	21000	10.093607551914	2
0	21000	10.093607551914	3
0	21023	10.102111551914	2
0	21023	10.102111551914	3
0	21048	10.110615551914	2
0	21048	10.110615551914	3
0	21071	10.119119551914	2
0	21071	10.119119551914	3
0	21092	10.127623551914	2
0	21111	10.157071354534	3
0	21117	10.165575354534	2
0	21147	10.181768448666	3
0	21158	10.190272448666	2
0	21158	10.190272448666	3
0	21185	10.198776448666	2
0	21185	10.198776448666	3
0	21204	10.207280448666	2
0	21204	10.207280448666	3
0	21225	10.215784448666	2
0	21242	10.224033411742	3
0	21250	10.232537411742	2
0	21280	10.246394043548	3
0	21287	10.254898043548	2
0	21304	10.254957377387	3
0	21322	10.263461377387	2
0	21322	10.263461377387	3
0	21341	10.271965377387	2
0	21341	10.271965377387	3
0	21362	10.280469377387	2
0	21362	10.280469377387	3
0	21385	10.288973377387	2
0	21385	10.288973377387	3
0	21406	10.297477377387	2
0	21422	10.297696463123	3
0	21433	10.306200463123	2
0	21433	10.306200463123	3
0	21458	10.314704463123	2
0	21458	10.314704463123	3
0	21485	10.323208463123	2
0	21485	10.323208463123	3
0	21510	10.331712463123	2
0	21510	10.331712463123	3
0	21533	10.340216463123	2
0	21533	10.340216463123	3
0	21554	10.348720463123	2
0	21554	10.348720463123	3
0	21577	10.357224463123	2
0	21577	10.357224463123	3
0	21602	10.365728463123	2
0	21602	10.365728463123	3
0	21625	10.374232463123	2
0	21625	10.374232463123	3
0	21646	10.382736463123	2
0	21662	10.383716966672	3
0	21669	10.392220966672	2
0	21701	10.403620087315	3
0	21712	10.412124087315	2
0	21712	10.412124087315	3
0	21731	10.420628087315	2
0	21748	10.42545803215	3
0	21764	10.43396203215	2
0	21764	10.43396203215	3
0	21783	10.44246603215	2
0	21783	10.44246603215	3
0	21802	10.45097003215	2
0	21835	10.479320877011	3
0	21849	10.487824877011	2
0	21849	10.487824877011	3
0	21872	10.496328877011	2
0	21872	10.496328877011	3
0	21899	10.504832877011	2
0	21899	10.504832877011	3
0	21920	10.513336877011	2
0	21920	10.513336877011	3
0	21943	10.521840877011	2
0	21943	10.521840877011	3
0	21968	10.530344877011	2
0	21968	10.530344877011	3
0	21987	10.538848877011	2
0	21987	10.538848877011	3
0	22008	10.547352877011	2
0	22027	10.567152470204	3
0	22033	10.575656470204	2
0	22063	10.592456479987	3
0	22070	10.600960479987	2
0	22101	10.664051308384	3
0	22115	10.672555308384	2
0	22115	10.672555308384	3
0	22138	10.681059308384	2
0	22138	10.681059308384	3
0	22169	10.689563308384	2
0	22169	10.689563308384	3
0	22194	10.698067308384	2
0	22194	10.698067308384	3
0	22213	10.706571308384	2
0	22213	10.706571308384	3
0	22234	10.715075308384	2
0	22234	10.715075308384	3
0	22253	10.723579308384	2
0	22253	10.723579308384	3
0	22278	10.732083308384	2
0	22278	10.732083308384	3
0	22297	10.740587308384	2
0	22316	10.743212377798	3
0	22335	10.751716377798	2
0	22335	10.751716377798	3
0	22346	10.760220377798	2
0	22377	10.774028219123	3
0	22384	10.782532219123	2
0	22401	10.788367356723	3
0	22420	10.796871356723	2
0	22420	10.796871356723	3
0	22435	10.805375356723	2
0	22435	10.805375356723	3
0	22463	10.813879356723	2
0	22463	10.813879356723	3
0	22482	10.822383356723	2
0	22482	10.822383356723	3
0	22507	10.830887356723	2
0	22507	10.830887356723	3
0	22526	10.839391356723	2
0	22559	10.861792680135	3
0	22565	10.870296680135	2
0	22582	10.874712583921	3
0	22597	10.883216583921	2
0	22606	10.890204136388	3
0	22617	10.898708136388	2
0	22617	10.898708136388	3
0	22636	10.907212136388	2
0	22653	10.908911253308	3
0	22665	10.917415253308	2
0	22665	10.917415253308	3
0	22692	10.925919253308	2
0	22692	10.925919253308	3
0	22711	10.934423253308	2
0	22711	10.934423253308	3
0	22736	10.942927253308	2
0	22736	10.942927253308	3
0	22759	10.951431253308	2
0	22759	10.951431253308	3
0	22784	10.959935253308	2
0	22784	10.959935253308	3
0	22803	10.968439253308	2
0	22836	11.008408963935	3
0	22842	11.016912963935	2
0	22859	11.01864965217	3
0	22874	11.02715365217	2
0	22884	11.053443636014	3
0	22890	11.061947636014	2
0	22907	11.063289246829	3
0	22921	11.071793246829	2
0	22930	11.073268962261	3
0	22945	11.081772962261	2
0	22945	11.081772962261	3
0	22969	11.090276962261	2
0	22969	11.090276962261	3
0	22988	11.098780962261	2
0	22988	11.098780962261	3
0	23017	11.107284962261	2
0	23017	11.107284962261	3
0	23036	11.115788962261	2
0	23036	11.115788962261	3
0	23057	11.124292962261	2
0	23076	11.145679406818	3
0	23082	11.154183406818	2
0	23099	11.161901569101	3
0	23118	11.170405569101	2
0	23118	11.170405569101	3
0	23133	11.178909569101	2
0	23133	11.178909569101	3
0	23157	11.187413569101	2
0	23157	11.187413569101	3
0	23176	11.195917569101	2
0	23195	11.198153830046	3
0	23210	11.206657830046	2
0	23218	11.208695775932	3
0	23226	11.217199775932	2
0	23243	11.225655013715	3
0	23262	11.234159013715	2
0	23262	11.234159013715	3
0	23273	11.242663013715	2
0	23305	11.261441840502	3
0	23311	11.269945840502	2
0	23342	11.320986233441	3
0	23352	11.329490233441	2
0	23352	11.329490233441	3
0	23375	11.337994233441	2
0	23375	11.337994233441	3
0	23394	11.346498233441	2
0	23425	11.355670041662	3
0	23440	11.364174041662	2
0	23440	11.364174041662	3
0	23460	11.372678041662	2
0	23460	11.372678041662	3
0	23483	11.381182041662	2
0	23483	11.381182041662	3
0	23504	11.389686041662	2
0	23523	11.425431793889	3
0	23533	11.433935793889	2
0	23533	11.433935793889	3
0	23556	11.442439793889	2
0	23556	11.442439793889	3
0	23579	11.450943793889	2
0	23579	11.450943793889	3
0	23600	11.459447793889	2
0	23617	11.464777039734	3
0	23625	11.473281039734	2
0	23642	11.479469636166	3
0	23661	11.487973636166	2
0	23661	11.487973636166	3
0	23672	11.496477636166	2
0	23704	11.528149210049	3
0	23710	11.536653210049	2
0	23740	11.554810176479	3
0	23747	11.563314176479	2
0	23764	11.56929503041	3
0	23783	11.57779903041	2
0	23783	11.57779903041	3
0	23798	11.58630303041	2
0	23798	11.58630303041	3
0	23822	11.59480703041	2
0	23822	11.59480703041	3
0	23841	11.60331103041	2
0	23860	11.609003138307	3
0	23875	11.617507138307	2
0	23883	11.620121581233	3
0	23895	11.628625581233	2
0	23895	11.628625581233	3
0	23918	11.637129581233	2
0	23918	11.637129581233	3
0	23937	11.645633581233	2
0	23956	11.648272311113	3
0	23975	11.656776311113	2
0	23975	11.656776311113	3
0	23986	11.665280311113	2
0	24017	11.679489179723	3
0	24028	11.687993179723	2
0	24028	11.687993179723	3
0	24047	11.696497179723	2
0	24066	11.721486545889	3
0	24076	11.729990545889	2
0	24076	11.729990545889	3
0	24103	11.738494545889	2
0	24103	11.738494545889	3
0	24122	11.746998545889	2
0	24122	11.746998545889	3
0	24143	11.755502545889	2
0	24160	11.762384843066	3
0	24172	11.770888843066	2
0	24172	11.770888843066	3
0	24191	11.779392843066	2
0	24210	11.809372729187	3
0	24220	11.817876729187	2
0	24220	11.817876729187	3
0	24243	11.826380729187	2
0	24243	11.826380729187	3
0	24262	11.834884729187	2
0	24281	11.840622103961	3
0	24304	11.849126103961	2
0	24304	11.849126103961	3
0	24315	11.857630103961	2
0	24315	11.857630103961	3
0	24335	11.866134103961	2
0	24352	11.870300430855	3
0	24360	11.878804430855	2
0	24390	11.889054649508	3
0	24397	11.897558649508	2
0	24414	11.897737750725	3
0	24436	11.906241750725	2
0	24436	11.906241750725	3
0	24451	11.914745750725	2
0	24451	11.914745750725	3
0	24472	11.923249750725	2
0	24472	11.923249750725	3
0	24495	11.931753750725	2
0	24495	11.931753750725	3
0	24520	11.940257750725	2
0	24520	11.940257750725	3
0	24543	11.948761750725	2
0	24543	11.948761750725	3
0	24568	11.957265750725	2
0	24568	11.957265750725	3
0	24591	11.965769750725	2
0	24591	11.965769750725	3
0	24616	11.974273750725	2
0	24616	11.974273750725	3
0	24647	11.982777750725	2
0	24647	11.982777750725	3
0	24668	11.991281750725	2
0	24668	11.991281750725	3
0	24687	11.999785750725	2
0	24687	11.999785750725	3
0	24712	12.008289750725	2
0	24712	12.008289750725	3
0	24735	12.016793750725	2
0	24735	12.016793750725	3
0	24768	12.025297750725	2
0	24768	12.025297750725	3
0	24791	12.033801750725	2
0	24791	12.033801750725	3
0	24816	12.042305750725	2
0	24816	12.042305750725	3
0	24835	12.050809750725	2
0	24835	12.050809750725	3
0	24856	12.059313750725	2
0	24856	12.059313750725	3
0	24879	12.067817750725	2
0	24879	12.067817750725	3
0	24900	12.076321750725	2
0	24919	12.096194680748	3
0	24929	12.104698680748	2
0	24929	12.104698680748	3
0	24948	12.113202680748	2
0	24967	12.133723677982	3
0	24973	12.142227677982	2
0	24990	12.143193743971	3
0	25004	12.151697743971	2
0	25013	12.153436124015	3
0	25033	12.161940124015	2
0	25033	12.161940124015	3
0	25060	12.170444124015	2
0	25060	12.170444124015	3
0	25083	12.178948124015	2
0	25083	12.178948124015	3
0	25104	12.187452124015	2
0	25104	12.187452124015	3
0	25123	12.195956124015	2
0	25123	12.195956124015	3
0	25148	12.204460124015	2
0	25148	12.204460124015	3
0	25167	12.212964124015	2
0	25167	12.212964124015	3
0	25196	12.221468124015	2
0	25196	12.221468124015	3
0	25215	12.229972124015	2
0	25215	12.229972124015	3
0	25244	12.238476124015	2
0	25244	12.238476124015	3
0	25263	12.246980124015	2
0	25263	12.246980124015	3
0	25284	12.255484124015	2
0	25303	12.308004137019	3
0	25309	12.316508137019	2
0	25338	12.326400213888	3
0	25349	12.334904213888	2
0	25349	12.334904213888	3
0	25373	12.343408213888	2
0	25373	12.343408213888	3
0	25392	12.351912213888	2
0	25411	12.353996554113	3
0	25426	12.362500554113	2
0	25436	12.375973029874	3
0	25450	12.384477029874	2
0	25450	12.384477029874	3
0	25469	12.392981029874	2
0	25469	12.392981029874	3
0	25488	12.401485029874	2
0	25520	12.412914462282	3
0	25527	12.421418462282	2
0	25544	12.426246142438	3
0	25559	12.434750142438	2
0	25569	12.45132342909	3
0	25583	12.45982742909	2
0	25583	12.45982742909	3
0	25614	12.46833142909	2
0	25614	12.46833142909	3
0	25633	12.47683542909	2
0	25633	12.47683542909	3
0	25662	12.48533942909	2
0	25662	12.48533942909	3
0	25689	12.49384342909	2
0	25689	12.49384342909	3
0	25710	12.50234742909	2
0	25710	12.50234742909	3
0	25729	12.51085142909	2
0	25729	12.51085142909	3
0	25750	12.51935542909	2
0	25750	12.51935542909	3
0	25773	12.52785942909	2
0	25773	12.52785942909	3
0	25798	12.53636342909	2
0	25798	12.53636342909	3
0	25817	12.54486742909	2
0	25817	12.54486742909	3
0	25838	12.55337142909	2
0	25855	12.555965637235	3
0	25867	12.564469637235	2
0	25867	12.564469637235	3
0	25894	12.572973637235	2
0	25894	12.572973637235	3
0	25917	12.581477637235	2
0	25917	12.581477637235	3
0	25950	12.589981637235	2
0	25950	12.589981637235	3
0	25973	12.598485637235	2
0	25973	12.598485637235	3
0	26002	12.606989637235	2
0	26002	12.606989637235	3
0	26029	12.615493637235	2
0	26029	12.615493637235	3
0	26050	12.623997637235	2
0	26050	12.623997637235	3
0	26069	12.632501637235	2
0	26069	12.632501637235	3
0	26094	12.641005637235	2
0	26094	12.641005637235	3
0	26117	12.649509637235	2
0	26117	12.649509637235	3
0	26142	12.658013637235	2
0	26142	12.658013637235	3
0	26169	12.666517637235	2
0	26169	12.666517637235	3
0	26190	12.675021637235	2
0	26190	12.675021637235	3
0	26209	12.683525637235	2
0	26209	12.683525637235	3
0	26230	12.692029637235	2
0	26230	12.692029637235	3
0	26257	12.700533637235	2
0	26257	12.700533637235	3
0	26286	12.709037637235	2
0	26286	12.709037637235	3
0	26309	12.717541637235	2
0	26309	12.717541637235	3
0	26334	12.726045637235	2
0	26334	12.726045637235	3
0	26353	12.734549637235	2
0	26353	12.734549637235	3
0	26378	12.743053637235	2
0	26378	12.743053637235	3
0	26401	12.751557637235	2
0	26401	12.751557637235	3
0	26422	12.760061637235	2
0	26422	12.760061637235	3
0	26449	12.768565637235	2
0	26449	12.768565637235	3
0	26470	12.777069637235	2
0	26470	12.777069637235	3
0	26489	12.785573637235	2
0	26489	12.785573637235	3
0	26510	12.794077637235	2
0	26526	12.794775316229	3
0	26533	12.803279316229	2
0	26552	12.807415343591	3
0	26567	12.815919343591	2
0	26575	12.819705440939	3
0	26587	12.828209440939	2
0	26587	12.828209440939	3
0	26606	12.836713440939	2
0	26625	12.848978560335	3
0	26639	12.857482560335	2
0	26639	12.857482560335	3
0	26658	12.865986560335	2
0	26658	12.865986560335	3
0	26677	12.874490560335	2
0	26696	12.878930665071	3
0	26719	12.887434665071	2
0	26719	12.887434665071	3
0	26730	12.895938665071	2
0	26730	12.895938665071	3
0	26754	12.904442665071	2
0	26754	12.904442665071	3
0	26773	12.912946665071	2
0	26790	12.913706775208	3
0	26806	12.922210775208	2
0	26815	12.929440040772	3
0	26827	12.937944040772	2
0	26827	12.937944040772	3
0	26850	12.946448040772	2
0	26850	12.946448040772	3
0	26877	12.954952040772	2
0	26877	12.954952040772	3
0	26898	12.963456040772	2
0	26898	12.963456040772	3
0	26917	12.971960040772	2
0	26950	13.024104442259	3
0	26956	13.032608442259	2
0	26973	13.037449028895	3
0	26988	13.045953028895	2
0	26998	13.063276215286	3
0	27008	13.071780215286	2
0	27008	13.071780215286	3
0	27027	13.080284215286	2
0	27046	13.100323880323	3
0	27060	13.108827880323	2
0	27060	13.108827880323	3
0	27079	13.117331880323	2
0	27079	13.117331880323	3
0	27102	13.125835880323	2
0	27102	13.125835880323	3
0	27123	13.134339880323	2
0	27142	13.167764258833	3
0	27160	13.176268258833	2
0	27160	13.176268258833	3
0	27183	13.184772258833	2
0	27183	13.184772258833	3
0	27202	13.193276258833	2
0	27202	13.193276258833	3
0	27227	13.201780258833	2
0	27227	13.201780258833	3
0	27246	13.210284258833	2
0	27246	13.210284258833	3
0	27267	13.218788258833	2
0	27286	13.235325972598	3
0	27300	13.243829972598	2
0	27300	13.243829972598	3
0	27323	13.252333972598	2
0	27323	13.252333972598	3
0	27342	13.260837972598	2
0	27342	13.260837972598	3
0	27371	13.269341972598	2
0	27371	13.269341972598	3
0	27390	13.277845972598	2
0	27390	13.277845972598	3
0	27411	13.286349972598	2
0	27428	13.292873656945	3
0	27436	13.301377656945	2
0	27465	13.310704933147	3
0	27472	13.319208933147	2
0	27503	13.336536166983	3
0	27510	13.345040166983	2
0	27541	13.378286497358	3
0	27547	13.386790497358	2
0	27564	13.388510635087	3
0	27583	13.397014635087	2
0	27583	13.397014635087	3
0	27598	13.405518635087	2
0	27598	13.405518635087	3
0	27618	13.414022635087	2
0	27637	13.430937717738	3
0	27651	13.439441717738	2
0	27651	13.439441717738	3
0	27670	13.447945717738	2
0	27670	13.447945717738	3
0	27693	13.456449717738	2
0	27693	13.456449717738	3
0	27714	13.464953717738	2
0	27731	13.466797567009	3
0	27743	13.475301567009	2
0	27743	13.475301567009	3
0	27762	13.483805567009	2
0	27781	13.513378555067	3
0	27795	13.521882555067	2
0	27795	13.521882555067	3
0	27818	13.530386555067	2
0	27818	13.530386555067	3
0	27837	13.538890555067	2
0	27837	13.538890555067	3
0	27858	13.547394555067	2
0	27877	13.575598842948	3
0	27883	13.584102842948	2
0	27900	13.588851165825	3
0	27927	13.597355165825	2
0	27927	13.597355165825	3
0	27942	13.605859165825	2
0	27942	13.605859165825	3
0	27962	13.614363165825	2
0	27962	13.614363165825	3
0	27985	13.622867165825	2
0	27985	13.622867165825	3
0	28010	13.631371165825	2
0	28010	13.631371165825	3
0	28033	13.639875165825	2
0	28033	13.639875165825	3
0	28054	13.648379165825	2
0	28054	13.648379165825	3
0	28077	13.656883165825	2
0	28077	13.656883165825	3
0	28102	13.665387165825	2
0	28102	13.665387165825	3
0	28129	13.673891165825	2
0	28129	13.673891165825	3
0	28150	13.682395165825	2
0	28150	13.682395165825	3
0	28169	13.690899165825	2
0	28188	13.698409916348	3
0	28203	13.706913916348	2
0	28211	13.708679652191	3
0	28227	13.717183652191	2
0	28227	13.717183652191	3
0	28250	13.725687652191	2
0	28250	13.725687652191	3
0	28277	13.734191652191	2
0	28277	13.734191652191	3
0	28298	13.742695652191	2
0	28298	13.742695652191	3
0	28317	13.751199652191	2
0	28317	13.751199652191	3
0	28338	13.759703652191	2
0	28355	13.764078053733	3
0	28363	13.772582053733	2
0	28393	13.782633027856	3
0	28404	13.791137027856	2
0	28404	13.791137027856	3
0	28431	13.799641027856	2
0	28431	13.799641027856	3
0	28462	13.808145027856	2
0	28462	13.808145027856	3
0	28483	13.816649027856	2
0	28483	13.816649027856	3
0	28506	13.825153027856	2
0	28506	13.825153027856	3
0	28527	13.833657027856	2
0	28527	13.833657027856	3
0	28550	13.842161027856	2
0	28550	13.842161027856	3
0	28579	13.850665027856	2
0	28579	13.850665027856	3
0	28602	13.859169027856	2
0	28602	13.859169027856	3
0	28627	13.867673027856	2
0	28627	13.867673027856	3
0	28646	13.876177027856	2
0	28646	13.876177027856	3
0	28667	13.884681027856	2
0	28667	13.884681027856	3
0	28686	13.893185027856	2
0	28705	13.896036596793	3
0	28720	13.904540596793	2
0	28730	13.914688096226	3
0	28736	13.923192096226	2
0	28767	13.967523068917	3
0	28773	13.976027068917	2
0	28803	13.993726096314	3
0	28818	14.002230096314	2
0	28818	14.002230096314	3
0	28837	14.010734096314	2
0	28837	14.010734096314	3
0	28856	14.019238096314	2
0	28875	14.021952863169	3
0	28894	14.030456863169	2
0	28894	14.030456863169	3
0	28909	14.038960863169	2
0	28909	14.038960863169	3
0	28941	14.047464863169	2
0	28941	14.047464863169	3
0	28960	14.055968863169	2
0	28960	14.055968863169	3
0	28985	14.064472863169	2
0	28985	14.064472863169	3
0	29004	14.072976863169	2
0	29004	14.072976863169	3
0	29029	14.081480863169	2
0	29029	14.081480863169	3
0	29056	14.089984863169	2
0	29056	14.089984863169	3
0	29081	14.098488863169	2
0	29081	14.098488863169	3
0	29104	14.106992863169	2
0	29104	14.106992863169	3
0	29129	14.115496863169	2
0	29129	14.115496863169	3
0	29148	14.124000863169	2
0	29148	14.124000863169	3
0	29173	14.132504863169	2
0	29173	14.132504863169	3
0	29192	14.141008863169	2
0	29209	14.141866727039	3
0	29225	14.150370727039	2
0	29236	14.1741397597	3
0	29242	14.1826437597	2
0	29259	14.185186765577	3
0	29274	14.193690765577	2
0	29282	14.196039035099	3
0	29290	14.204543035099	2
0	29307	14.21206557671	3
0	29322	14.22056957671	2
0	29331	14.227591633989	3
0	29342	14.236095633989	2
0	29342	14.236095633989	3
0	29361	14.244599633989	2
0	29378	14.250669497866	3
0	29386	14.259173497866	2
0	29417	14.278845478697	3
0	29423	14.287349478697	2
0	29452	14.296982803791	3
0	29459	14.305486803791	2
0	29490	14.319698981793	3
0	29497	14.328202981793	2
0	29527	14.34236257727	3
0	29538	14.35086657727	2
0	29538	14.35086657727	3
0	29557	14.35937057727	2
0	29574	14.366833811527	3
0	29582	14.375337811527	2
0	29599	14.382065811524	3
0	29618	14.390569811524	2
0	29618	14.390569811524	3
0	29629	14.399073811524	2
0	29646	14.400228754821	3
0	29661	14.408732754821	2
0	29670	14.413649290182	3
0	29678	14.422153290182	2
0	29708	14.433104729414	3
0	29719	14.441608729414	2
0	29719	14.441608729414	3
0	29742	14.450112729414	2
0	29742	14.450112729414	3
0	29761	14.458616729414	2
0	29778	14.459017513483	3
0	29794	14.467521513483	2
0	29803	14.469353838481	3
0	29811	14.477857838481	2
0	29840	14.487381191376	3
0	29855	14.495885191376	2
0	29855	14.495885191376	3
0	29875	14.504389191376	2
0	29875	14.504389191376	3
0	29898	14.512893191376	2
0	29898	14.512893191376	3
0	29923	14.521397191376	2
0	29923	14.521397191376	3
0	29946	14.529901191376	2
0	29946	14.529901191376	3
0	29971	14.538405191376	2
0	29971	14.538405191376	3
0	29994	14.546909191376	2
0	29994	14.546909191376	3
0	30019	14.555413191376	2
0	30019	14.555413191376	3
0	30042	14.563917191376	2
0	30042	14.563917191376	3
0	30063	14.572421191376	2
0	30080	14.581617354333	3
0	30088	14.590121354333	2
0	30105	14.594120213059	3
0	30128	14.602624213059	2
0	30128	14.602624213059	3
0	30139	14.611128213059	2
0	30139	14.611128213059	3
0	30159	14.619632213059	2
0	30176	14.6281058287	3
0	30192	14.6366098287	2
0	30192	14.6366098287	3
0	30211	14.6451138287	2
0	30211	14.6451138287	3
0	30238	14.6536178287	2
0	30238	14.6536178287	3
0	30259	14.6621218287	2
0	30259	14.6621218287	3
0	30278	14.6706258287	2
0	30297	14.674655726617	3
0	30312	14.683159726617	2
0	30322	14.702062177939	3
0	30332	14.710566177939	2
0	30332	14.710566177939	3
0	30351	14.719070177939	2
0	30370	14.738933905411	3
0	30376	14.747437905411	2
0	30393	14.747603889435	3
0	30411	14.756107889435	2
0	30411	14.756107889435	3
0	30430	14.764611889435	2
0	30430	14.764611889435	3
0	30451	14.773115889435	2
0	30451	14.773115889435	3
0	30470	14.781619889435	2
0	30503	14.812940038262	3
0	30513	14.821444038262	2
0	30513	14.821444038262	3
0	30540	14.829948038262	2
0	30540	14.829948038262	3
0	30559	14.838452038262	2
0	30559	14.838452038262	3
0	30580	14.846956038262	2
0	30597	14.849968206362	3
0	30609	14.858472206362	2
0	30609	14.858472206362	3
0	30628	14.866976206362	2
0	30644	14.868128333792	3
0	30659	14.876632333792	2
0	30659	14.876632333792	3
0	30680	14.885136333792	2
0	30680	14.885136333792	3
0	30703	14.893640333792	2
0	30703	14.893640333792	3
0	30732	14.902144333792	2
0	30732	14.902144333792	3
0	30755	14.910648333792	2
0	30755	14.910648333792	3
0	30780	14.919152333792	2
0	30780	14.919152333792	3
0	30803	14.927656333792	2
0	30803	14.927656333792	3
0	30828	14.936160333792	2
0	30828	14.936160333792	3
0	30851	14.944664333792	2
0	30851	14.944664333792	3
0	30872	14.953168333792	2
0	30872	14.953168333792	3
0	30895	14.961672333792	2
0	30895	14.961672333792	3
0	30924	14.970176333792	2
0	30924	14.970176333792	3
0	30951	14.978680333792	2
0	30951	14.978680333792	3
0	30972	14.987184333792	2
0	30972	14.987184333792	3
0	30991	14.995688333792	2
0	30991	14.995688333792	3
0	31012	15.004192333792	2
0	31031	15.023817464354	3
0	31049	15.032321464354	2
0	31049	15.032321464354	3
0	31068	15.040825464354	2
0	31068	15.040825464354	3
0	31087	15.049329464354	2
0	31087	15.049329464354	3
0	31108	15.057833464354	2
0	31125	15.066604735472	3
0	31137	15.075108735472	2
0	31137	15.075108735472	3
0	31156	15.083612735472	2
0	31175	15.128513394702	3
0	31181	15.137017394702	2
0	31198	15.145134604979	3
0	31217	15.153638604979	2
0	31217	15.153638604979	3
0	31228	15.162142604979	2
0	31246	15.164601668681	3
0	31261	15.173105668681	2
0	31271	15.193329318301	3
0	31277	15.201833318301	2
0	31294	15.209299183953	3
0	31321	15.217803183953	2
0	31321	15.217803183953	3
0	31332	15.226307183953	2
0	31332	15.226307183953	3
0	31352	15.234811183953	2
0	31352	15.234811183953	3
0	31371	15.243315183953	2
0	31404	15.276833339267	3
0	31414	15.285337339267	2
0	31414	15.285337339267	3
0	31433	15.293841339267	2
0	31452	15.353152445845	3
0	31458	15.361656445845	2
0	31475	15.366048994522	3
0	31490	15.374552994522	2
0	31500	15.398033777751	3
0	31506	15.406537777751	2
0	31523	15.41040810792	3
0	31546	15.41891210792	2
0	31546	15.41891210792	3
0	31557	15.42741610792	2
0	31557	15.42741610792	3
0	31577	15.43592010792	2
0	31596	15.44633999051	3
0	31602	15.45484399051	2
0	31633	15.476967000953	3
0	31639	15.485471000953	2
0	31656	15.48915504086	3
0	31683	15.49765904086	2
0	31683	15.49765904086	3
0	31694	15.50616304086	2
0	31694	15.50616304086	3
0	31722	15.51466704086	2
0	31722	15.51466704086	3
0	31745	15.52317104086	2
0	31745	15.52317104086	3
0	31774	15.53167504086	2
0	31774	15.53167504086	3
0	31801	15.54017904086	2
0	31801	15.54017904086	3
0	31822	15.54868304086	2
0	31822	15.54868304086	3
0	31841	15.55718704086	2
0	31841	15.55718704086	3
0	31866	15.56569104086	2
0	31866	15.56569104086	3
0	31889	15.57419504086	2
0	31889	15.57419504086	3
0	31918	15.58269904086	2
0	31918	15.58269904086	3
0	31937	15.59120304086	2
0	31937	15.59120304086	3
0	31958	15.59970704086	2
0	31958	15.59970704086	3
0	31977	15.60821104086	2
0	31977	15.60821104086	3
0	32002	15.61671504086	2
0	32002	15.61671504086	3
0	32029	15.62521904086	2
0	32029	15.62521904086	3
0	32054	15.63372304086	2
0	32054	15.63372304086	3
0	32081	15.64222704086	2
0	32081	15.64222704086	3
0	32106	15.65073104086	2
0	32106	15.65073104086	3
0	32125	15.65923504086	2
0	32125	15.65923504086	3
0	32146	15.66773904086	2
0	32146	15.66773904086	3
0	32169	15.67624304086	2
0	32169	15.67624304086	3
0	32194	15.68474704086	2
0	32194	15.68474704086	3
0	32217	15.69325104086	2
0	32217	15.69325104086	3
0	32238	15.70175504086	2
0	32257	15.722856475427	3
0	32263	15.731360475427	2
0	32293	15.743674580404	3
0	32300	15.752178580404	2
0	32331	15.774143325726	3
0	32341	15.782647325726	2
0	32341	15.782647325726	3
0	32360	15.791151325726	2
0	32376	15.791442405435	3
0	32383	15.799946405435	2
0	32416	15.836585979745	3
0	32426	15.845089979745	2
0	32426	15.845089979745	3
0	32445	15.853593979745	2
0	32461	15.854694619457	3
0	32472	15.863198619457	2
0	32472	15.863198619457	3
0	32501	15.871702619457	2
0	32501	15.871702619457	3
0	32520	15.880206619457	2
0	32520	15.880206619457	3
0	32545	15.888710619457	2
0	32545	15.888710619457	3
0	32572	15.897214619457	2
0	32572	15.897214619457	3
0	32593	15.905718619457	2
0	32593	15.905718619457	3
0	32616	15.914222619457	2
0	32616	15.914222619457	3
0	32641	15.922726619457	2
0	32641	15.922726619457	3
0	32664	15.931230619457	2
0	32664	15.931230619457	3
0	32697	15.939734619457	2
0	32697	15.939734619457	3
0	32716	15.948238619457	2
0	32716	15.948238619457	3
0	32741	15.956742619457	2
0	32741	15.956742619457	3
0	32760	15.965246619457	2
0	32760	15.965246619457	3
0	32781	15.973750619457	2
0	32797	15.974032567667	3
0	32804	15.982536567667	2
0	32821	15.983623669393	3
0	32837	15.992127669393	2
0	32846	15.992743465346	3
0	32861	16.001247465346	2
0	32861	16.001247465346	3
0	32881	16.009751465346	2
0	32881	16.009751465346	3
0	32900	16.018255465346	2
0	32933	16.048710995808	3
0	32939	16.057214995808	2
0	32969	16.0731796298	3
0	32980	16.0816836298	2
0	32980	16.0816836298	3
0	33003	16.0901876298	2
0	33003	16.0901876298	3
0	33026	16.0986916298	2
0	33026	16.0986916298	3
0	33051	16.1071956298	2
0	33051	16.1071956298	3
0	33078	16.1156996298	2
0	33078	16.1156996298	3
0	33099	16.1242036298	2
0	33099	16.1242036298	3
0	33122	16.1327076298	2
0	33122	16.1327076298	3
0	33151	16.1412116298	2
0	33151	16.1412116298	3
[...]
40	13400	6.513448560126	43
40	13437	6.543254972564	44
40	13474	6.564791049932	45
40	13847	6.827091321719	46
40	15228	7.40933564156	47
40	15313	7.447036344186	48
40	15878	7.754346768881	49
40	15915	7.775553763435	50
40	16192	7.914175043909	51
40	16325	7.975418672948	52
40	17082	8.289076136129	53
40	17167	8.348939382705	54
40	17204	8.387068550163	55
40	17241	8.406162977323	56
40	17326	8.492113658119	57
40	17699	8.639173522556	58
40	18504	8.937751292474	59
40	18685	9.053987581257	60
40	18818	9.12384954285	61
40	18999	9.222065360048	62
40	19372	9.402265157436	63
40	19505	9.498709851648	64
40	19686	9.569343323279	65
40	19723	9.595989422854	66
40	19808	9.633578019575	67
40	21141	10.174080699174	68
40	21274	10.241042756382	69
40	21695	10.400726311312	70
40	21828	10.45947537679	71
40	22057	10.584161814844	72
40	22094	10.609465824627	73
40	22371	10.768725722438	74
40	22552	10.847896701363	75
40	22829	10.976944597948	76
40	23298	11.251168358355	77
40	23335	11.278451185142	78
40	23420	11.355003578081	79
40	23697	11.504982980806	80
40	23734	11.545158554689	81
40	24011	11.673785655753	82
40	24384	11.887309775495	83
40	25333	12.325013481659	84
40	25514	12.409990374514	85
40	26943	12.980465385412	86
40	27460	13.309883001585	87
40	27497	13.327714277787	88
40	27534	13.353545511623	89
40	28387	13.781087398373	90
40	28760	13.931697440866	91
40	28797	13.984532413557	92
40	29410	14.267678842506	93
40	29447	14.295854823337	94
40	29484	14.313992148431	95
40	29521	14.336708326433	96
40	29702	14.430658634822	97
40	29835	14.486363183121	98
40	30496	14.790125234075	99
40	31397	15.251820528593	100
40	31626	15.46334933515	101
40	32287	15.739865820067	102
40	32324	15.760683925044	103
40	32409	15.808451750075	104
40	32926	16.026760809986	105
40	32963	16.065720340448	106
40	33960	16.452136201844	107
40	33997	16.478207312489	108
40	34034	16.502089555056	109
40	34071	16.520012200779	110
40	34108	16.539164117047	111
40	34289	16.650359631354	112
40	34374	16.698855966979	113
40	34747	16.838814560109	114
40	35024	16.963040785457	115
40	35301	17.088543897002	116
40	35338	17.113305825095	117
40	35423	17.236283020758	118
40	35556	17.292058914259	119
40	35593	17.323663972059	120
40	35870	17.451445101172	121
40	35955	17.496114639177	122
40	36616	17.751378758728	123
40	36653	17.790905917364	124
40	37218	18.007275101479	125
40	37255	18.058273319112	126
40	37772	18.359753414251	127
40	38145	18.516004197884	128
40	38326	18.622209405856	129
40	38363	18.641029794666	130
40	38880	18.856026828682	131
40	39205	19.010742870972	132
40	39434	19.102685309007	133
40	40719	19.600453273377	134
40	40996	19.745275455386	135
40	41081	19.789938340182	136
40	41214	19.873064226689	137
41	1095	0.534344366712	1000
41	1180	0.589195874949	1000
41	1409	0.730934914925	1000
41	1542	0.805328426198	1000
41	1579	0.848002457206	1000
41	1856	0.996346383009	1000
41	1941	1.043401324406	1000
41	2026	1.101721041777	1000
41	2543	1.321052840978	1000
41	2628	1.369890219322	1000
41	2809	1.470503047685	1000
41	3134	1.612236579803	1000
41	3411	1.730963416064	1000
41	3736	1.87565884058	1000
41	4253	2.101855543685	1000
41	4338	2.15410365423	1000
41	4519	2.271744238187	1000
41	4748	2.404657399209	1000
41	4977	2.545408664928	1000
41	5590	2.85369653956	1000
41	6683	3.335469768462	1000
41	6912	3.451056377014	1000
41	6949	3.494972264983	1000
41	6986	3.518765251838	1000
41	7023	3.536958078996	1000
41	7492	3.762959179949	1000
41	7721	3.889590594962	1000
41	7806	3.933075347925	1000
41	8419	4.178127549858	1000
41	9320	4.548167785489	1000
41	9597	4.724440199456	1000
41	10642	5.171178793469	1000
41	10679	5.201044807702	1000
41	10764	5.24113767055	1000
41	10849	5.284428505874	1000
41	10982	5.360787916898	1000
41	11979	5.782758305305	1000
41	12064	5.823720564449	1000
41	12197	5.888555658759	1000
41	12378	6.013835621514	1000
41	12703	6.189594319928	1000
41	12740	6.222259574072	1000
41	13401	6.513448560126	1000
41	13438	6.543254972564	1000
41	13475	6.564791049932	1000
41	13848	6.827091321719	1000
41	15229	7.40933564156	1000
41	15314	7.447036344186	1000
41	15879	7.754346768881	1000
41	15916	7.775553763435	1000
41	16193	7.914175043909	1000
41	16326	7.975418672948	1000
41	17083	8.289076136129	1000
41	17168	8.348939382705	1000
41	17205	8.387068550163	1000
41	17242	8.406162977323	1000
41	17327	8.492113658119	1000
41	17700	8.639173522556	1000
41	18505	8.937751292474	1000
41	18686	9.053987581257	1000
41	18819	9.12384954285	1000
41	19000	9.222065360048	1000
41	19373	9.402265157436	1000
41	19506	9.498709851648	1000
41	19687	9.569343323279	1000
41	19724	9.595989422854	1000
41	19809	9.633578019575	1000
41	21142	10.174080699174	1000
41	21275	10.241042756382	1000
41	21696	10.400726311312	1000
41	21829	10.45947537679	1000
41	22058	10.584161814844	1000
41	22095	10.609465824627	1000
41	22372	10.768725722438	1000
41	22553	10.847896701363	1000
41	22830	10.976944597948	1000
41	23299	11.251168358355	1000
41	23336	11.278451185142	1000
41	23421	11.355003578081	1000
41	23698	11.504982980806	1000
41	23735	11.545158554689	1000
41	24012	11.673785655753	1000
41	24385	11.887309775495	1000
41	25334	12.325013481659	1000
41	25515	12.409990374514	1000
41	26944	12.980465385412	1000
41	27461	13.309883001585	1000
41	27498	13.327714277787	1000
41	27535	13.353545511623	1000
41	28388	13.781087398373	1000
41	28761	13.931697440866	1000
41	28798	13.984532413557	1000
41	29411	14.267678842506	1000
41	29448	14.295854823337	1000
41	29485	14.313992148431	1000
41	29522	14.336708326433	1000
41	29703	14.430658634822	1000
41	29836	14.486363183121	1000
41	30497	14.790125234075	1000
41	31398	15.251820528593	1000
41	31627	15.46334933515	1000
41	32288	15.739865820067	1000
41	32325	15.760683925044	1000
41	32410	15.808451750075	1000
41	32927	16.026760809986	1000
41	32964	16.065720340448	1000
41	33961	16.452136201844	1000
41	33998	16.478207312489	1000
41	34035	16.502089555056	1000
41	34072	16.520012200779	1000
41	34109	16.539164117047	1000
41	34290	16.650359631354	1000
41	34375	16.698855966979	1000
41	34748	16.838814560109	1000
41	35025	16.963040785457	1000
41	35302	17.088543897002	1000
41	35339	17.113305825095	1000
41	35424	17.236283020758	1000
41	35557	17.292058914259	1000
41	35594	17.323663972059	1000
41	35871	17.451445101172	1000
41	35956	17.496114639177	1000
41	36617	17.751378758728	1000
41	36654	17.790905917364	1000
41	37219	18.007275101479	1000
41	37256	18.058273319112	1000
41	37773	18.359753414251	1000
41	38146	18.516004197884	1000
41	38327	18.622209405856	1000
41	38364	18.641029794666	1000
41	38881	18.856026828682	1000
41	39206	19.010742870972	1000
41	39435	19.102685309007	1000
41	40720	19.600453273377	1000
41	40997	19.745275455386	1000
41	41082	19.789938340182	1000
41	41215	19.873064226689	1000
42	1095	0.1	0
42	1095	0.2	0
42	1095	0.3	0
42	1095	0.4	0
42	1095	0.5	0
42	1409	0.6	160000
42	1409	0.7	0
42	1542	0.8	80000
42	1856	0.9	160000
42	1941	1	80000
42	2026	1.1	80000
42	2543	1.2	80000
42	2543	1.3	0
42	2809	1.4	160000
42	3134	1.5	80000
42	3134	1.6	0
42	3411	1.7	80000
42	3736	1.8	80000
42	4253	1.9	80000
42	4253	2	0
42	4253	2.1	0
42	4519	2.2	160000
42	4748	2.3	80000
42	4748	2.4	0
42	4977	2.5	80000
42	5590	2.6	80000
42	5590	2.7	0
42	5590	2.8	0
42	6683	2.9	80000
42	6683	3	0
42	6683	3.1	0
42	6683	3.2	0
42	6683	3.3	0
42	6912	3.4	80000
42	6986	3.5	160000
42	7492	3.6	160000
42	7492	3.7	0
42	7721	3.8	80000
42	7806	3.9	80000
42	8419	4	80000
42	8419	4.1	0
42	9320	4.2	80000
42	9320	4.3	0
42	9320	4.4	0
42	9320	4.5	0
42	9597	4.6	80000
42	9597	4.7	0
42	10642	4.8	80000
42	10642	4.9	0
42	10642	5	0
42	10642	5.1	0
42	10679	5.2	80000
42	10982	5.3	240000
42	11979	5.4	80000
42	11979	5.5	0
42	11979	5.6	0
42	11979	5.7	0
42	12064	5.8	80000
42	12378	5.9	160000
42	12378	6	0
42	12703	6.1	80000
42	12740	6.2	80000
42	13401	6.3	80000
42	13401	6.4	0
42	13401	6.5	0
42	13848	6.6	240000
42	13848	6.7	0
42	13848	6.8	0
42	15229	6.9	80000
42	15229	7	0
42	15229	7.1	0
42	15229	7.2	0
42	15229	7.3	0
42	15229	7.4	0
42	15879	7.5	160000
42	15879	7.6	0
42	15879	7.7	0
42	16193	7.8	160000
42	16193	7.9	0
42	17083	8	160000
42	17083	8.1	0
42	17083	8.2	0
42	17168	8.3	80000
42	17242	8.4	160000
42	17700	8.5	160000
42	17700	8.6	0
42	18505	8.7	80000
42	18505	8.8	0
42	18505	8.9	0
42	18686	9	80000
42	18819	9.1	80000
42	19000	9.2	80000
42	19373	9.3	80000
42	19373	9.4	0
42	19687	9.5	160000
42	19809	9.6	160000
42	21142	9.7	80000
42	21142	9.8	0
42	21142	9.9	0
42	21142	10	0
42	21142	10.1	0
42	21275	10.2	80000
42	21696	10.3	80000
42	21696	10.4	0
42	22058	10.5	160000
42	22095	10.6	80000
42	22372	10.7	80000
42	22553	10.8	80000
42	22830	10.9	80000
42	23299	11	80000
42	23299	11.1	0
42	23299	11.2	0
42	23421	11.3	160000
42	23698	11.4	80000
42	23698	11.5	0
42	24012	11.6	160000
42	24385	11.7	80000
42	24385	11.8	0
42	25334	11.9	80000
42	25334	12	0
42	25334	12.1	0
42	25334	12.2	0
42	25334	12.3	0
42	25515	12.4	80000
42	26944	12.5	80000
42	26944	12.6	0
42	26944	12.7	0
42	26944	12.8	0
42	26944	12.9	0
42	27461	13	80000
42	27461	13.1	0
42	27461	13.2	0
42	27461	13.3	0
42	28388	13.4	240000
42	28388	13.5	0
42	28388	13.6	0
42	28388	13.7	0
42	28761	13.8	80000
42	28761	13.9	0
42	29411	14	160000
42	29411	14.1	0
42	29411	14.2	0
42	29485	14.3	160000
42	29703	14.4	160000
42	30497	14.5	160000
42	30497	14.6	0
42	30497	14.7	0
42	31398	14.8	80000
42	31398	14.9	0
42	31398	15	0
42	31398	15.1	0
42	31398	15.2	0
42	31627	15.3	80000
42	31627	15.4	0
42	32288	15.5	80000
42	32288	15.6	0
42	32288	15.7	0
42	32410	15.8	160000
42	32927	15.9	80000
42	32927	16	0
42	33961	16.1	160000
42	33961	16.2	0
42	33961	16.3	0
42	33961	16.4	0
42	34035	16.5	160000
42	34290	16.6	240000
42	34748	16.7	160000
42	34748	16.8	0
42	35025	16.9	80000
42	35302	17	80000
42	35339	17.1	80000
42	35424	17.2	80000
42	35594	17.3	160000
42	35871	17.4	80000
42	36617	17.5	160000
42	36617	17.6	0
42	36617	17.7	0
42	37219	17.8	160000
42	37219	17.9	0
42	37219	18	0
42	37773	18.1	160000
42	37773	18.2	0
42	37773	18.3	0
42	38146	18.4	80000
42	38146	18.5	0
42	38327	18.6	80000
42	38881	18.7	160000
42	38881	18.8	0
42	39206	18.9	80000
42	39206	19	0
42	39435	19.1	80000
42	40720	19.2	80000
42	40720	19.3	0
42	40720	19.4	0
42	40720	19.5	0
42	40720	19.6	0
42	40997	19.7	80000
42	41215	19.8	160000
43	1095	0.534344366712	0.025263344013
43	1180	0.589195874949	0.01700934464
43	1409	0.730934914925	0.01700934464
43	1542	0.805328426198	0.0172183741
43	1579	0.848002457206	0.01700934464
43	1856	0.996346383009	0.01700934464
43	1941	1.043401324406	0.02109047707
43	2026	1.101721041777	0.01700934464
43	2543	1.321052840978	0.01700934464
43	2628	1.369890219322	0.018356791908
43	2809	1.470503047685	0.026059552818
43	3134	1.612236579803	0.01700934464
43	3411	1.730963416064	0.040323434713
43	3736	1.87565884058	0.021738589868
43	4253	2.101855543685	0.021516998497
43	4338	2.15410365423	0.01700934464
43	4519	2.271744238187	0.01700934464
43	4748	2.404657399209	0.03334692244
43	4977	2.545408664928	0.01700934464
43	5590	2.85369653956	0.022385663087
43	6683	3.335469768462	0.02377300331
43	6912	3.451056377014	0.01700934464
43	6949	3.494972264983	0.01700934464
43	6986	3.518765251838	0.01700934464
43	7023	3.536958078996	0.01700934464
43	7492	3.762959179949	0.019485010778
43	7721	3.889590594962	0.01700934464
43	7806	3.933075347925	0.01700934464
43	8419	4.178127549858	0.018132364431
43	9320	4.548167785489	0.034903151278
43	9597	4.724440199456	0.01700934464
43	10642	5.171178793469	0.018531021596
43	10679	5.201044807702	0.01700934464
43	10764	5.24113767055	0.019055256512
43	10849	5.284428505874	0.018401455625
43	10982	5.360787916898	0.018359281943
43	11979	5.782758305305	0.031758878501
43	12064	5.823720564449	0.032881171415
43	12197	5.888555658759	0.032183898644
43	12378	6.013835621514	0.021608344034
43	12703	6.189594319928	0.0190855019
43	12740	6.222259574072	0.01700934464
43	13401	6.513448560126	0.030144952912
43	13438	6.543254972564	0.01700934464
43	13475	6.564791049932	0.01700934464
43	13848	6.827091321719	0.01700934464
43	15229	7.40933564156	0.01700934464
43	15314	7.447036344186	0.027372508467
43	15879	7.754346768881	0.022487743875
43	15916	7.775553763435	0.01700934464
43	16193	7.914175043909	0.01700934464
43	16326	7.975418672948	0.023177231027
43	17083	8.289076136129	0.01700934464
43	17168	8.348939382705	0.01700934464
43	17205	8.387068550163	0.01700934464
43	17242	8.406162977323	0.01700934464
43	17327	8.492113658119	0.01700934464
43	17700	8.639173522556	0.02637794231
43	18505	8.937751292474	0.020175267169
43	18686	9.053987581257	0.021131674799
43	18819	9.12384954285	0.034276312824
43	19000	9.222065360048	0.01700934464
43	19373	9.402265157436	0.030153623466
43	19506	9.498709851648	0.01700934464
43	19687	9.569343323279	0.023219524608
43	19724	9.595989422854	0.01700934464
43	19809	9.633578019575	0.02548117674
43	21142	10.174080699174	0.01700934464
43	21275	10.241042756382	0.01700934464
43	21696	10.400726311312	0.01700934464
43	21829	10.45947537679	0.026049335656
43	22058	10.584161814844	0.01700934464
43	22095	10.609465824627	0.01700934464
43	22372	10.768725722438	0.0210347079
43	22553	10.847896701363	0.019265738515
43	22830	10.976944597948	0.022383214948
43	23299	11.251168358355	0.022037716265
43	23336	11.278451185142	0.01700934464
43	23421	11.355003578081	0.023228614315
43	23698	11.504982980806	0.02090448578
43	23735	11.545158554689	0.01700934464
43	24012	11.673785655753	0.017395706082
43	24385	11.887309775495	0.01700934464
43	25334	12.325013481659	0.01700934464
43	25515	12.409990374514	0.029173024958
43	26944	12.980465385412	0.030451308028
43	27461	13.309883001585	0.01700934464
43	27498	13.327714277787	0.01700934464
43	27535	13.353545511623	0.01700934464
43	28388	13.781087398373	0.01700934464
43	28761	13.931697440866	0.01700934464
43	28798	13.984532413557	0.01700934464
43	29411	14.267678842506	0.01700934464
43	29448	14.295854823337	0.01700934464
43	29485	14.313992148431	0.01700934464
43	29522	14.336708326433	0.01700934464
43	29703	14.430658634822	0.01700934464
43	29836	14.486363183121	0.01700934464
43	30497	14.790125234075	0.027873041234
43	31398	15.251820528593	0.034336641656
43	31627	15.46334933515	0.01700934464
43	32288	15.739865820067	0.01700934464
43	32325	15.760683925044	0.01700934464
43	32410	15.808451750075	0.01700934464
43	32927	16.026760809986	0.027694563118
43	32964	16.065720340448	0.01700934464
43	33961	16.452136201844	0.01700934464
43	33998	16.478207312489	0.01700934464
43	34035	16.502089555056	0.01700934464
43	34072	16.520012200779	0.01700934464
43	34109	16.539164117047	0.01700934464
43	34290	16.650359631354	0.01700934464
43	34375	16.698855966979	0.025995718743
43	34748	16.838814560109	0.023093636343
43	35025	16.963040785457	0.01700934464
43	35302	17.088543897002	0.01700934464
43	35339	17.113305825095	0.01700934464
43	35424	17.236283020758	0.031160143048
43	35557	17.292058914259	0.024596292068
43	35594	17.323663972059	0.01700934464
43	35871	17.451445101172	0.018049828161
43	35956	17.496114639177	0.026954932887
43	36617	17.751378758728	0.019726131794
43	36654	17.790905917364	0.01700934464
43	37219	18.007275101479	0.018471721824
43	37256	18.058273319112	0.01700934464
43	37773	18.359753414251	0.01700934464
43	38146	18.516004197884	0.01700934464
43	38327	18.622209405856	0.01700934464
43	38364	18.641029794666	0.01700934464
43	38881	18.856026828682	0.01700934464
43	39206	19.010742870972	0.01700934464
43	39435	19.102685309007	0.01700934464
43	40720	19.600453273377	0.026650041093
43	40997	19.745275455386	0.024299111442
43	41082	19.789938340182	0.025182327429
43	41215	19.873064226689	0.019267098201
44	1095	0.534344366712	44
44	1180	0.589195874949	47
44	1409	0.730934914925	56
44	1542	0.805328426198	61
44	1579	0.848002457206	62
44	1856	0.996346383009	73
44	1941	1.043401324406	76
44	2026	1.101721041777	79
44	2543	1.321052840978	100
44	2628	1.369890219322	103
44	2809	1.470503047685	110
44	3134	1.612236579803	123
44	3411	1.730963416064	134
44	3736	1.87565884058	147
44	4253	2.101855543685	168
44	4338	2.15410365423	171
44	4519	2.271744238187	178
44	4748	2.404657399209	187
44	4977	2.545408664928	196
44	5590	2.85369653956	221
44	6683	3.335469768462	266
44	6912	3.451056377014	275
44	6949	3.494972264983	276
44	6986	3.518765251838	277
44	7023	3.536958078996	278
44	7492	3.762959179949	297
44	7721	3.889590594962	306
44	7806	3.933075347925	309
44	8419	4.178127549858	334
44	9320	4.548167785489	371
44	9597	4.724440199456	382
44	10642	5.171178793469	425
44	10679	5.201044807702	426
44	10764	5.24113767055	429
44	10849	5.284428505874	432
44	10982	5.360787916898	437
44	11979	5.782758305305	478
44	12064	5.823720564449	481
44	12197	5.888555658759	486
44	12378	6.013835621514	493
44	12703	6.189594319928	506
44	12740	6.222259574072	507
44	13401	6.513448560126	534
44	13438	6.543254972564	535
44	13475	6.564791049932	536
44	13848	6.827091321719	551
44	15229	7.40933564156	608
44	15314	7.447036344186	611
44	15879	7.754346768881	634
44	15916	7.775553763435	635
44	16193	7.914175043909	646
44	16326	7.975418672948	651
44	17083	8.289076136129	682
44	17168	8.348939382705	685
44	17205	8.387068550163	686
44	17242	8.406162977323	687
44	17327	8.492113658119	690
44	17700	8.639173522556	705
44	18505	8.937751292474	738
44	18686	9.053987581257	745
44	18819	9.12384954285	750
44	19000	9.222065360048	757
44	19373	9.402265157436	772
44	19506	9.498709851648	777
44	19687	9.569343323279	784
44	19724	9.595989422854	785
44	19809	9.633578019575	788
44	21142	10.174080699174	843
44	21275	10.241042756382	848
44	21696	10.400726311312	865
44	21829	10.45947537679	870
44	22058	10.584161814844	879
44	22095	10.609465824627	880
44	22372	10.768725722438	891
44	22553	10.847896701363	898
44	22830	10.976944597948	909
44	23299	11.251168358355	928
44	23336	11.278451185142	929
44	23421	11.355003578081	932
44	23698	11.504982980806	943
44	23735	11.545158554689	944
44	24012	11.673785655753	955
44	24385	11.887309775495	970
44	25334	12.325013481659	1009
44	25515	12.409990374514	1016
44	26944	12.980465385412	1075
44	27461	13.309883001585	1096
44	27498	13.327714277787	1097
44	27535	13.353545511623	1098
44	28388	13.781087398373	1133
44	28761	13.931697440866	1148
44	28798	13.984532413557	1149
44	29411	14.267678842506	1174
44	29448	14.295854823337	1175
44	29485	14.313992148431	1176
44	29522	14.336708326433	1177
44	29703	14.430658634822	1184
44	29836	14.486363183121	1189
44	30497	14.790125234075	1216
44	31398	15.251820528593	1253
44	31627	15.46334933515	1262
44	32288	15.739865820067	1289
44	32325	15.760683925044	1290
44	32410	15.808451750075	1293
44	32927	16.026760809986	1314
44	32964	16.065720340448	1315
44	33961	16.452136201844	1356
44	33998	16.478207312489	1357
44	34035	16.502089555056	1358
44	34072	16.520012200779	1359
44	34109	16.539164117047	1360
44	34290	16.650359631354	1367
44	34375	16.698855966979	1370
44	34748	16.838814560109	1385
44	35025	16.963040785457	1396
44	35302	17.088543897002	1407
44	35339	17.113305825095	1408
44	35424	17.236283020758	1411
44	35557	17.292058914259	1416
44	35594	17.323663972059	1417
44	35871	17.451445101172	1428
44	35956	17.496114639177	1431
44	36617	17.751378758728	1458
44	36654	17.790905917364	1459
44	37219	18.007275101479	1482
44	37256	18.058273319112	1483
44	37773	18.359753414251	1504
44	38146	18.516004197884	1519
44	38327	18.622209405856	1526
44	38364	18.641029794666	1527
44	38881	18.856026828682	1548
44	39206	19.010742870972	1561
44	39435	19.102685309007	1570
44	40720	19.600453273377	1623
44	40997	19.745275455386	1634
44	41082	19.789938340182	1637
44	41215	19.873064226689	1642

