version 2
run Wireless05-0-20210831-00:02:05-35576
attr configname Wireless05
attr datetime 20210831-00:02:05
attr experiment Wireless05
attr inifile omnetpp.ini
attr iterationvars ""
attr iterationvarsf ""
attr measurement ""
attr network WirelessB
attr processid 35576
attr repetition 0
attr replication #0
attr resultdir results
attr runnumber 0
attr seedset 0
param *.host*.wlan[0].radio.receiver.ignoreInterference false
param *.host*.wlan[0].radio.transmitter.interferenceRange 500m
param *.hostA.wlan[0].radio.displayInterferenceRange true
param *.visualizer.dataLinkVisualizer.packetFilter "\"\""
param *.host*.forwarding true
param *.configurator.config "xml(\"<config><interface hosts='**' address='10.0.0.x' netmask='255.255.255.0'/><autoroute metric='errorRate'/></config>\")"
param *.configurator.optimizeRoutes false
param *.host*.ipv4.routingTable.netmaskRoutes "\"\""
param *.visualizer.physicalLinkVisualizer.displayLinks true
param *.visualizer.dataLinkVisualizer.displayLinks true
param *.visualizer.networkRouteVisualizer.displayRoutes true
param *.visualizer.*LinkVisualizer.lineShift 0
param *.visualizer.networkRouteVisualizer.lineShift 0
param *.visualizer.networkRouteVisualizer.packetFilter "\"UDPData*\""
param *.host*.wlan[0].radio.transmitter.communicationRange 250m
param *.hostR1.wlan[0].radio.displayCommunicationRange true
param *.hostA.wlan[0].radio.displayCommunicationRange true
param *.visualizer.sceneVisualizer.descriptionFigure "\"title\""
param *.visualizer.mediumVisualizer.displaySignals true
param *.visualizer.physicalLinkVisualizer.displayLinks true
param *.visualizer.physicalLinkVisualizer.packetFilter "\"UDPData*\""
param *.host*.ipv4.arp.typename "\"GlobalArp\""
param *.hostA.numApps 1
param *.hostA.app[0].typename "\"UdpBasicApp\""
param *.hostA.app[0].destAddresses "\"hostB\""
param *.hostA.app[0].destPort 5000
param *.hostA.app[0].messageLength 1000B
param *.hostA.app[0].sendInterval exponential(12ms)
param *.hostA.app[0].packetName "\"UDPData\""
param *.hostB.numApps 1
param *.hostB.app[0].typename "\"UdpSink\""
param *.hostB.app[0].localPort 5000
param *.host*.wlan[0].typename "\"AckingWirelessInterface\""
param *.host*.wlan[0].mac.useAck false
param *.host*.wlan[0].mac.fullDuplex false
param *.host*.wlan[0].radio.transmitter.communicationRange 400m
param *.host*.wlan[0].radio.receiver.ignoreInterference true
param *.host*.wlan[0].mac.headerLength 23B
param *.host*.**.bitrate 1Mbps

vector 0 WirelessB.hostA.wlan[0].radio radioMode:vector ETV
attr interpolationmode sample-hold
attr source radioModeChanged
attr title "Radio mode, vector"
vector 1 WirelessB.hostB.wlan[0].radio radioMode:vector ETV
attr interpolationmode sample-hold
attr source radioModeChanged
attr title "Radio mode, vector"
vector 2 WirelessB.hostR1.wlan[0].radio radioMode:vector ETV
attr interpolationmode sample-hold
attr source radioModeChanged
attr title "Radio mode, vector"
vector 3 WirelessB.hostR2.wlan[0].radio radioMode:vector ETV
attr interpolationmode sample-hold
attr source radioModeChanged
attr title "Radio mode, vector"
vector 4 WirelessB.hostR3.wlan[0].radio radioMode:vector ETV
attr interpolationmode sample-hold
attr source radioModeChanged
attr title "Radio mode, vector"
vector 5 WirelessB.hostA.wlan[0].radio receptionState:vector ETV
attr interpolationmode sample-hold
attr source receptionStateChanged
attr title "Radio reception state, vector"
vector 6 WirelessB.hostB.wlan[0].radio receptionState:vector ETV
attr interpolationmode sample-hold
attr source receptionStateChanged
attr title "Radio reception state, vector"
vector 7 WirelessB.hostR1.wlan[0].radio receptionState:vector ETV
attr interpolationmode sample-hold
attr source receptionStateChanged
attr title "Radio reception state, vector"
vector 8 WirelessB.hostR2.wlan[0].radio receptionState:vector ETV
attr interpolationmode sample-hold
attr source receptionStateChanged
attr title "Radio reception state, vector"
vector 9 WirelessB.hostR3.wlan[0].radio receptionState:vector ETV
attr interpolationmode sample-hold
attr source receptionStateChanged
attr title "Radio reception state, vector"
vector 10 WirelessB.hostA.app[0] packetSent:vector(packetBytes) ETV
attr interpolationmode none
attr source packetSent
attr title "packets sent, vector(packetBytes)"
vector 11 WirelessB.hostA.udp packetSent:vector(packetBytes) ETV
attr interpolationmode none
attr source packetSent
attr title "packets sent, vector(packetBytes)"
vector 12 WirelessB.hostA.wlan[0].mac rcvdPkFromHl:vector(packetBytes) ETV
attr interpolationmode none
attr source packetReceivedFromUpper
attr title "packets received from higher layer, vector(packetBytes)"
vector 13 WirelessB.hostA.wlan[0].mac.queue packetPushed:vector(packetBytes) ETV
attr interpolationmode none
attr title "packet pushed, vector(packetBytes)"
vector 14 WirelessB.hostA.wlan[0].mac.queue queueLength:vector ETV
attr interpolationmode sample-hold
attr source "count(packetPushed) - count(packetPopped) - count(packetRemoved) - count(packetDropped)"
attr title "queue length, vector"
vector 15 WirelessB.hostA.wlan[0].mac.queue packetPopped:vector(packetBytes) ETV
attr interpolationmode none
attr title "packet popped, vector(packetBytes)"
vector 16 WirelessB.hostA.wlan[0].mac.queue queueingTime:vector ETV
attr interpolationmode none
attr source queueingTime(packetPopped)
attr title "queueing times, vector"
attr unit s
vector 17 WirelessB.hostA.wlan[0].radio transmissionState:vector ETV
attr interpolationmode sample-hold
attr source transmissionStateChanged
attr title "Radio transmission state, vector"
vector 18 WirelessB.hostA.wlan[0].mac sentDownPk:vector(packetBytes) ETV
attr interpolationmode none
attr source packetSentToLower
attr title "packets sent to lower layer, vector(packetBytes)"
vector 19 WirelessB.hostR2.wlan[0].mac rcvdPkFromLl:vector(packetBytes) ETV
attr interpolationmode none
attr source packetReceivedFromLower
attr title "packets received from lower layer, vector(packetBytes)"
vector 20 WirelessB.hostR2.wlan[0].mac packetDropNotAddressedToUs:vector(packetBytes) ETV
attr interpolationmode none
attr source packetDropReasonIsNotAddressedToUs(packetDropped)
attr title "packet drop: not addressed to us, vector(packetBytes)"
vector 21 WirelessB.hostR1.wlan[0].mac rcvdPkFromLl:vector(packetBytes) ETV
attr interpolationmode none
attr source packetReceivedFromLower
attr title "packets received from lower layer, vector(packetBytes)"
vector 22 WirelessB.hostR1.wlan[0].mac passedUpPk:vector(packetBytes) ETV
attr interpolationmode none
attr source packetSentToUpper
attr title "packets passed to higher layer, vector(packetBytes)"
vector 23 WirelessB.hostR1.wlan[0].mac rcvdPkFromHl:vector(packetBytes) ETV
attr interpolationmode none
attr source packetReceivedFromUpper
attr title "packets received from higher layer, vector(packetBytes)"
vector 24 WirelessB.hostR1.wlan[0].mac.queue packetPushed:vector(packetBytes) ETV
attr interpolationmode none
attr title "packet pushed, vector(packetBytes)"
vector 25 WirelessB.hostR1.wlan[0].mac.queue queueLength:vector ETV
attr interpolationmode sample-hold
attr source "count(packetPushed) - count(packetPopped) - count(packetRemoved) - count(packetDropped)"
attr title "queue length, vector"
vector 26 WirelessB.hostR1.wlan[0].mac.queue packetPopped:vector(packetBytes) ETV
attr interpolationmode none
attr title "packet popped, vector(packetBytes)"
vector 27 WirelessB.hostR1.wlan[0].mac.queue queueingTime:vector ETV
attr interpolationmode none
attr source queueingTime(packetPopped)
attr title "queueing times, vector"
attr unit s
vector 28 WirelessB.hostR1.wlan[0].radio transmissionState:vector ETV
attr interpolationmode sample-hold
attr source transmissionStateChanged
attr title "Radio transmission state, vector"
vector 29 WirelessB.hostR1.wlan[0].mac sentDownPk:vector(packetBytes) ETV
attr interpolationmode none
attr source packetSentToLower
attr title "packets sent to lower layer, vector(packetBytes)"
vector 30 WirelessB.hostR2.wlan[0].mac packetDropIncorrectlyReceived:vector(packetBytes) ETV
attr interpolationmode none
attr source packetDropReasonIsIncorrectlyReceived(packetDropped)
attr title "packet drop: incorrectly received, vector(packetBytes)"
vector 31 WirelessB.hostR3.wlan[0].mac rcvdPkFromLl:vector(packetBytes) ETV
attr interpolationmode none
attr source packetReceivedFromLower
attr title "packets received from lower layer, vector(packetBytes)"
vector 32 WirelessB.hostR3.wlan[0].mac packetDropIncorrectlyReceived:vector(packetBytes) ETV
attr interpolationmode none
attr source packetDropReasonIsIncorrectlyReceived(packetDropped)
attr title "packet drop: incorrectly received, vector(packetBytes)"
vector 33 WirelessB.hostB.wlan[0].mac rcvdPkFromLl:vector(packetBytes) ETV
attr interpolationmode none
attr source packetReceivedFromLower
attr title "packets received from lower layer, vector(packetBytes)"
vector 34 WirelessB.hostB.wlan[0].mac packetDropIncorrectlyReceived:vector(packetBytes) ETV
attr interpolationmode none
attr source packetDropReasonIsIncorrectlyReceived(packetDropped)
attr title "packet drop: incorrectly received, vector(packetBytes)"
vector 35 WirelessB.hostR3.wlan[0].mac packetDropNotAddressedToUs:vector(packetBytes) ETV
attr interpolationmode none
attr source packetDropReasonIsNotAddressedToUs(packetDropped)
attr title "packet drop: not addressed to us, vector(packetBytes)"
vector 36 WirelessB.hostA.wlan[0].mac rcvdPkFromLl:vector(packetBytes) ETV
attr interpolationmode none
attr source packetReceivedFromLower
attr title "packets received from lower layer, vector(packetBytes)"
vector 37 WirelessB.hostA.wlan[0].mac packetDropNotAddressedToUs:vector(packetBytes) ETV
attr interpolationmode none
attr source packetDropReasonIsNotAddressedToUs(packetDropped)
attr title "packet drop: not addressed to us, vector(packetBytes)"
vector 38 WirelessB.hostB.wlan[0].mac passedUpPk:vector(packetBytes) ETV
attr interpolationmode none
attr source packetSentToUpper
attr title "packets passed to higher layer, vector(packetBytes)"
vector 39 WirelessB.hostB.udp packetReceived:vector(packetBytes) ETV
attr interpolationmode none
attr source packetReceived
attr title "packets received, vector(packetBytes)"
vector 40 WirelessB.hostB.udp passedUpPk:vector(count) ETV
attr interpolationmode none
attr source packetSentToUpper
attr title "packets passed up, vector(count)"
vector 41 WirelessB.hostB.app[0] packetReceived:vector(packetBytes) ETV
attr interpolationmode none
attr source packetReceived
attr title "packets received, vector(packetBytes)"
vector 42 WirelessB.hostB.app[0] throughput:vector ETV
attr source throughput(packetReceived)
attr title "throughput, vector"
attr unit bps
vector 43 WirelessB.hostB.app[0] endToEndDelay:vector ETV
attr interpolationmode none
attr source dataAge(packetReceived)
attr title "end-to-end delay, vector"
attr unit s
vector 44 WirelessB.hostB.app[0] rcvdPkSeqNo:vector ETV
attr interpolationmode none
attr source appPkSeqNo(packetReceived)
attr title "received packet sequence number, vector"
0	0	0	0
0	0	0	0
0	0	0	2
0	8	0.022315250545	3
0	18	0.030819250545	2
0	18	0.030819250545	3
0	41	0.039323250545	2
0	41	0.039323250545	3
0	60	0.047827250545	2
0	79	0.053995414818	3
0	98	0.062499414818	2
0	98	0.062499414818	3
0	113	0.071003414818	2
0	113	0.071003414818	3
0	133	0.079507414818	2
0	152	0.089528900904	3
0	162	0.098032900904	2
0	162	0.098032900904	3
0	181	0.106536900904	2
0	197	0.107003186959	3
0	208	0.115507186959	2
0	208	0.115507186959	3
0	229	0.124011186959	2
0	248	0.15031620375	3
0	258	0.15882020375	2
0	258	0.15882020375	3
0	277	0.16732420375	2
0	294	0.176621680585	3
0	306	0.185125680585	2
0	306	0.185125680585	3
0	325	0.193629680585	2
0	344	0.203690215556	3
0	350	0.212194215556	2
0	367	0.21250978861	3
0	381	0.22101378861	2
0	390	0.226141055911	3
0	398	0.234645055911	2
0	415	0.241443788338	3
0	430	0.249947788338	2
0	438	0.251911642679	3
0	446	0.260415642679	2
0	463	0.261161658581	3
0	477	0.269665658581	2
0	486	0.278218034742	3
0	498	0.286722034742	2
0	498	0.286722034742	3
0	525	0.295226034742	2
0	525	0.295226034742	3
0	544	0.303730034742	2
0	544	0.303730034742	3
0	577	0.312234034742	2
0	577	0.312234034742	3
0	608	0.320738034742	2
0	608	0.320738034742	3
0	633	0.329242034742	2
0	633	0.329242034742	3
0	652	0.337746034742	2
0	652	0.337746034742	3
0	673	0.346250034742	2
0	673	0.346250034742	3
0	696	0.354754034742	2
0	696	0.354754034742	3
0	721	0.363258034742	2
0	721	0.363258034742	3
0	740	0.371762034742	2
0	740	0.371762034742	3
0	765	0.380266034742	2
0	765	0.380266034742	3
0	784	0.388770034742	2
0	784	0.388770034742	3
0	805	0.397274034742	2
0	822	0.400388501443	3
0	834	0.408892501443	2
0	834	0.408892501443	3
0	853	0.417396501443	2
0	872	0.443645800365	3
0	878	0.452149800365	2
0	895	0.456351809943	3
0	918	0.464855809943	2
0	918	0.464855809943	3
0	929	0.473359809943	2
0	929	0.473359809943	3
0	953	0.481863809943	2
0	953	0.481863809943	3
0	972	0.490367809943	2
0	989	0.491823022072	3
0	1013	0.500327022072	2
0	1013	0.500327022072	3
0	1024	0.508831022072	2
0	1024	0.508831022072	3
0	1049	0.517335022072	2
0	1049	0.517335022072	3
0	1068	0.525839022072	2
0	1101	0.547396382404	3
0	1107	0.555900382404	2
0	1124	0.560090299364	3
0	1139	0.568594299364	2
0	1147	0.572186530309	3
0	1155	0.580690530309	2
0	1186	0.636507734512	3
0	1192	0.645011734512	2
0	1209	0.646970724756	3
0	1228	0.655474724756	2
0	1228	0.655474724756	3
0	1243	0.663978724756	2
0	1243	0.663978724756	3
0	1263	0.672482724756	2
0	1279	0.672839241789	3
0	1290	0.681343241789	2
0	1290	0.681343241789	3
0	1311	0.689847241789	2
0	1327	0.691267276166	3
0	1338	0.699771276166	2
0	1338	0.699771276166	3
0	1359	0.708275276166	2
0	1376	0.713925570285	3
0	1384	0.722429570285	2
0	1415	0.749771848987	3
0	1421	0.758275848987	2
0	1438	0.762807081558	3
0	1457	0.771311081558	2
0	1457	0.771311081558	3
0	1472	0.779815081558	2
0	1472	0.779815081558	3
0	1496	0.788319081558	2
0	1496	0.788319081558	3
0	1515	0.796823081558	2
0	1548	0.830993112566	3
0	1554	0.839497112566	2
0	1584	0.856256968176	3
0	1591	0.864760968176	2
0	1608	0.864807971296	3
0	1634	0.873311971296	2
0	1634	0.873311971296	3
0	1649	0.881815971296	2
0	1649	0.881815971296	3
0	1670	0.890319971296	2
0	1670	0.890319971296	3
0	1689	0.898823971296	2
0	1689	0.898823971296	3
0	1710	0.907327971296	2
0	1729	0.926630920731	3
0	1739	0.935134920731	2
0	1739	0.935134920731	3
0	1762	0.943638920731	2
0	1762	0.943638920731	3
0	1781	0.952142920731	2
0	1800	0.953846192005	3
0	1815	0.962350192005	2
0	1825	0.979337038369	3
0	1831	0.987841038369	2
0	1862	1.009383979766	3
0	1872	1.017887979766	2
0	1872	1.017887979766	3
0	1895	1.026391979766	2
0	1895	1.026391979766	3
0	1914	1.034895979766	2
0	1946	1.046349733606	3
0	1953	1.054853733606	2
0	1970	1.054884708853	3
0	1984	1.063388708853	2
0	1995	1.084711697137	3
0	2001	1.093215697137	2
0	2032	1.115195351233	3
0	2050	1.123699351233	2
0	2050	1.123699351233	3
0	2069	1.132203351233	2
0	2069	1.132203351233	3
0	2088	1.140707351233	2
0	2088	1.140707351233	3
0	2113	1.149211351233	2
0	2113	1.149211351233	3
0	2136	1.157715351233	2
0	2136	1.157715351233	3
0	2157	1.166219351233	2
0	2176	1.177018180335	3
0	2186	1.185522180335	2
0	2186	1.185522180335	3
0	2209	1.194026180335	2
0	2209	1.194026180335	3
0	2236	1.202530180335	2
0	2236	1.202530180335	3
0	2265	1.211034180335	2
0	2265	1.211034180335	3
0	2288	1.219538180335	2
0	2288	1.219538180335	3
0	2309	1.228042180335	2
0	2309	1.228042180335	3
0	2336	1.236546180335	2
0	2336	1.236546180335	3
0	2361	1.245050180335	2
0	2361	1.245050180335	3
0	2380	1.253554180335	2
0	2380	1.253554180335	3
0	2405	1.262058180335	2
0	2405	1.262058180335	3
0	2428	1.270562180335	2
0	2428	1.270562180335	3
0	2449	1.279066180335	2
0	2449	1.279066180335	3
0	2468	1.287570180335	2
0	2487	1.291819591578	3
0	2502	1.300323591578	2
0	2510	1.304043496338	3
0	2518	1.312547496338	2
0	2548	1.33070157912	3
0	2555	1.33920557912	2
0	2572	1.344376874682	3
0	2591	1.352880874682	2
0	2591	1.352880874682	3
1	0	0	0
1	0	0	0
1	0	0	2
2	0	0	0
2	0	0	0
2	0	0	2
2	27	0.030819922865	3
2	47	0.039323922865	2
2	66	0.047827922865	3
2	85	0.056331922865	2
2	122	0.071004087138	3
2	137	0.079508087138	2
2	171	0.098033573224	3
2	185	0.106537573224	2
2	217	0.115507859279	3
2	233	0.124011859279	2
2	267	0.15882087607	3
2	281	0.16732487607	2
2	315	0.185126352905	3
2	329	0.193630352905	2
2	356	0.212194887876	3
2	373	0.220698887876	2
2	404	0.234645728231	3
2	421	0.243149728231	2
2	452	0.260416314999	3
2	469	0.268920314999	2
2	507	0.286722707062	3
2	531	0.295226707062	2
2	553	0.303730707062	3
2	583	0.312234707062	2
2	617	0.320738707062	3
2	639	0.329242707062	2
2	661	0.337746707062	3
2	679	0.346250707062	2
2	705	0.354754707062	3
2	727	0.363258707062	2
2	749	0.371762707062	3
2	771	0.380266707062	2
2	793	0.388770707062	3
2	809	0.397274707062	2
2	843	0.408893173763	3
2	857	0.417397173763	2
2	884	0.452150472685	3
2	905	0.460654472685	2
2	938	0.473360482263	3
2	959	0.481864482263	2
2	978	0.490368482263	3
2	1005	0.498872482263	2
2	1033	0.508831694392	3
2	1055	0.517335694392	2
2	1074	0.525839694392	3
2	1084	0.534343694392	2
2	1113	0.555901054724	3
2	1130	0.564405054724	2
2	1161	0.580691202629	3
2	1169	0.589195202629	2
2	1198	0.645012406832	3
2	1219	0.653516406832	2
2	1252	0.663979397076	3
2	1267	0.672483397076	2
2	1299	0.681343914109	3
2	1315	0.689847914109	2
2	1347	0.699771948486	3
2	1363	0.708275948486	2
2	1390	0.722430242605	3
2	1398	0.730934242605	2
2	1427	0.758276521307	3
2	1448	0.766780521307	2
2	1481	0.779815753878	3
2	1502	0.788319753878	2
2	1521	0.796823753878	3
2	1531	0.805327753878	2
2	1560	0.839497784886	3
2	1568	0.848001784886	2
2	1597	0.864761640496	3
2	1626	0.873265640496	2
2	1658	0.881816643616	3
2	1676	0.890320643616	2
2	1698	0.898824643616	3
2	1714	0.907328643616	2
2	1748	0.935135593051	3
2	1768	0.943639593051	2
2	1787	0.952143593051	3
2	1806	0.960647593051	2
2	1837	0.987841710689	3
2	1845	0.996345710689	2
2	1881	1.017888652086	3
2	1901	1.026392652086	2
2	1920	1.034896652086	3
2	1930	1.043400652086	2
2	1959	1.054854405926	3
2	1976	1.063358405926	2
2	2007	1.093216369457	3
2	2015	1.101720369457	2
2	2059	1.123700023553	3
2	2075	1.132204023553	2
2	2097	1.140708023553	3
2	2119	1.149212023553	2
2	2145	1.157716023553	3
2	2161	1.166220023553	2
2	2195	1.185522852655	3
2	2215	1.194026852655	2
2	2245	1.202530852655	3
2	2271	1.211034852655	2
2	2297	1.219538852655	3
2	2315	1.228042852655	2
2	2345	1.236546852655	3
2	2367	1.245050852655	2
2	2389	1.253554852655	3
2	2411	1.262058852655	2
2	2437	1.270562852655	3
2	2455	1.279066852655	2
2	2474	1.287570852655	3
2	2493	1.296074852655	2
2	2524	1.312548168658	3
2	2532	1.321052168658	2
2	2561	1.33920625144	3
2	2578	1.34771025144	2
3	0	0	0
3	0	0	0
3	0	0	2
4	0	0	0
4	0	0	0
4	0	0	2
5	0	0	1
5	8	0.022315250545	0
5	18	0.030819250545	1
5	18	0.030819250545	0
5	41	0.039323250545	2
5	41	0.039323250545	0
5	60	0.047827250545	1
5	72	0.047828595185	3
5	79	0.053995414818	2
5	79	0.053995414818	0
5	98	0.062499414818	1
5	98	0.062499414818	0
5	113	0.071003414818	1
5	113	0.071003414818	0
5	133	0.079507414818	2
5	143	0.079508759458	1
5	152	0.089528900904	0
5	162	0.098032900904	1
5	162	0.098032900904	0
5	181	0.106536900904	2
5	191	0.106538245544	1
5	197	0.107003186959	0
5	208	0.115507186959	1
5	208	0.115507186959	0
5	229	0.124011186959	2
5	239	0.124012531599	1
5	248	0.15031620375	0
5	258	0.15882020375	1
5	258	0.15882020375	0
5	277	0.16732420375	2
5	287	0.16732554839	1
5	294	0.176621680585	0
5	306	0.185125680585	1
5	306	0.185125680585	0
5	325	0.193629680585	2
5	335	0.193631025225	1
5	344	0.203690215556	0
5	350	0.212194215556	1
5	362	0.212195560196	3
5	367	0.21250978861	2
5	367	0.21250978861	0
5	381	0.22101378861	1
5	390	0.226141055911	0
5	398	0.234645055911	1
5	410	0.234646400551	3
5	415	0.241443788338	2
5	415	0.241443788338	0
5	430	0.249947788338	1
5	438	0.251911642679	0
5	446	0.260415642679	1
5	458	0.260416987319	3
5	463	0.261161658581	2
5	463	0.261161658581	0
5	477	0.269665658581	1
5	486	0.278218034742	0
5	498	0.286722034742	1
5	498	0.286722034742	0
5	525	0.295226034742	2
5	525	0.295226034742	0
5	544	0.303730034742	1
5	544	0.303730034742	0
5	577	0.312234034742	2
5	577	0.312234034742	0
5	608	0.320738034742	1
5	608	0.320738034742	0
5	633	0.329242034742	2
5	633	0.329242034742	0
5	652	0.337746034742	1
5	652	0.337746034742	0
5	673	0.346250034742	2
5	673	0.346250034742	0
5	696	0.354754034742	1
5	696	0.354754034742	0
5	721	0.363258034742	2
5	721	0.363258034742	0
5	740	0.371762034742	1
5	740	0.371762034742	0
5	765	0.380266034742	2
5	765	0.380266034742	0
5	784	0.388770034742	1
5	784	0.388770034742	0
5	805	0.397274034742	2
5	815	0.397275379382	1
5	822	0.400388501443	0
5	834	0.408892501443	1
5	834	0.408892501443	0
5	853	0.417396501443	2
5	863	0.417397846083	1
5	872	0.443645800365	0
5	878	0.452149800365	1
5	890	0.452151145005	3
5	895	0.456351809943	2
5	895	0.456351809943	0
5	918	0.464855809943	1
5	918	0.464855809943	0
5	929	0.473359809943	1
5	929	0.473359809943	0
5	953	0.481863809943	2
5	953	0.481863809943	0
5	972	0.490367809943	1
5	984	0.490369154583	3
5	989	0.491823022072	2
5	989	0.491823022072	0
5	1013	0.500327022072	1
5	1013	0.500327022072	0
5	1024	0.508831022072	1
5	1024	0.508831022072	0
5	1049	0.517335022072	2
5	1049	0.517335022072	0
5	1068	0.525839022072	1
5	1080	0.525840366712	3
5	1089	0.534344366712	1
5	1101	0.547396382404	0
5	1107	0.555900382404	1
5	1119	0.555901727044	3
5	1124	0.560090299364	2
5	1124	0.560090299364	0
5	1139	0.568594299364	1
5	1147	0.572186530309	0
5	1155	0.580690530309	1
5	1167	0.580691874949	3
5	1174	0.589195874949	1
5	1186	0.636507734512	0
5	1192	0.645011734512	1
5	1204	0.645013079152	3
5	1209	0.646970724756	2
5	1209	0.646970724756	0
5	1228	0.655474724756	1
5	1228	0.655474724756	0
5	1243	0.663978724756	1
5	1243	0.663978724756	0
5	1263	0.672482724756	2
5	1273	0.672484069396	1
5	1279	0.672839241789	0
5	1290	0.681343241789	1
5	1290	0.681343241789	0
5	1311	0.689847241789	2
5	1321	0.689848586429	1
5	1327	0.691267276166	0
5	1338	0.699771276166	1
5	1338	0.699771276166	0
5	1359	0.708275276166	2
5	1369	0.708276620806	1
5	1376	0.713925570285	0
5	1384	0.722429570285	1
5	1396	0.722430914925	3
5	1403	0.730934914925	1
5	1415	0.749771848987	0
5	1421	0.758275848987	1
5	1433	0.758277193627	3
5	1438	0.762807081558	2
5	1438	0.762807081558	0
5	1457	0.771311081558	1
5	1457	0.771311081558	0
5	1472	0.779815081558	1
5	1472	0.779815081558	0
5	1496	0.788319081558	2
5	1496	0.788319081558	0
5	1515	0.796823081558	1
5	1527	0.796824426198	3
5	1536	0.805328426198	1
5	1548	0.830993112566	0
5	1554	0.839497112566	1
5	1566	0.839498457206	3
5	1573	0.848002457206	1
5	1584	0.856256968176	0
5	1591	0.864760968176	1
5	1603	0.864762312816	3
5	1608	0.864807971296	2
5	1608	0.864807971296	0
5	1634	0.873311971296	1
5	1634	0.873311971296	0
5	1649	0.881815971296	1
5	1649	0.881815971296	0
5	1670	0.890319971296	2
5	1670	0.890319971296	0
5	1689	0.898823971296	1
5	1689	0.898823971296	0
5	1710	0.907327971296	2
5	1720	0.907329315936	1
5	1729	0.926630920731	0
5	1739	0.935134920731	1
5	1739	0.935134920731	0
5	1762	0.943638920731	2
5	1762	0.943638920731	0
5	1781	0.952142920731	1
5	1793	0.952144265371	3
5	1800	0.953846192005	2
5	1800	0.953846192005	0
5	1815	0.962350192005	1
5	1825	0.979337038369	0
5	1831	0.987841038369	1
5	1843	0.987842383009	3
5	1850	0.996346383009	1
5	1862	1.009383979766	0
5	1872	1.017887979766	1
5	1872	1.017887979766	0
5	1895	1.026391979766	2
5	1895	1.026391979766	0
5	1914	1.034895979766	1
5	1926	1.034897324406	3
5	1935	1.043401324406	1
5	1946	1.046349733606	0
5	1953	1.054853733606	1
5	1965	1.054855078246	3
5	1970	1.054884708853	2
5	1970	1.054884708853	0
5	1984	1.063388708853	1
5	1995	1.084711697137	0
5	2001	1.093215697137	1
5	2013	1.093217041777	3
5	2020	1.101721041777	1
5	2032	1.115195351233	0
5	2050	1.123699351233	1
5	2050	1.123699351233	0
5	2069	1.132203351233	2
5	2069	1.132203351233	0
5	2088	1.140707351233	1
5	2088	1.140707351233	0
5	2113	1.149211351233	2
5	2113	1.149211351233	0
5	2136	1.157715351233	1
5	2136	1.157715351233	0
5	2157	1.166219351233	2
5	2167	1.166220695873	1
5	2176	1.177018180335	0
5	2186	1.185522180335	1
5	2186	1.185522180335	0
5	2209	1.194026180335	2
5	2209	1.194026180335	0
5	2236	1.202530180335	1
5	2236	1.202530180335	0
5	2265	1.211034180335	2
5	2265	1.211034180335	0
5	2288	1.219538180335	1
5	2288	1.219538180335	0
5	2309	1.228042180335	2
5	2309	1.228042180335	0
5	2336	1.236546180335	1
5	2336	1.236546180335	0
5	2361	1.245050180335	2
5	2361	1.245050180335	0
5	2380	1.253554180335	1
5	2380	1.253554180335	0
5	2405	1.262058180335	2
5	2405	1.262058180335	0
5	2428	1.270562180335	1
5	2428	1.270562180335	0
5	2449	1.279066180335	2
5	2449	1.279066180335	0
5	2468	1.287570180335	1
5	2480	1.287571524975	3
5	2487	1.291819591578	2
5	2487	1.291819591578	0
5	2502	1.300323591578	1
5	2510	1.304043496338	0
5	2518	1.312547496338	1
5	2530	1.312548840978	3
5	2537	1.321052840978	1
5	2548	1.33070157912	0
5	2555	1.33920557912	1
5	2567	1.33920692376	3
5	2572	1.344376874682	2
5	2572	1.344376874682	0
5	2591	1.352880874682	1
5	2591	1.352880874682	0
6	0	0	1
6	13	0.022316584801	2
6	36	0.030820595185	3
6	57	0.039324595185	2
6	71	0.047828584801	1
6	73	0.047828595185	3
6	91	0.056332595185	2
6	131	0.071004759458	3
6	144	0.079508759458	1
6	157	0.08953023516	2
6	180	0.098034245544	3
6	192	0.106538245544	1
6	202	0.107004521215	2
6	226	0.115508531599	3
6	240	0.124012531599	1
6	253	0.150317538006	2
6	276	0.15882154839	3
6	288	0.16732554839	1
6	299	0.176623014841	2
6	324	0.185127025225	3
6	336	0.193631025225	1
6	349	0.203691549812	2
6	361	0.212195549812	1
6	363	0.212195560196	3
6	379	0.220699560196	2
6	385	0.221015122866	1
6	395	0.226142390167	2
6	409	0.234646390167	1
6	411	0.234646400551	3
6	427	0.243150400551	2
6	434	0.249949122594	1
6	443	0.251912976935	2
6	457	0.260416976935	1
6	459	0.260416987319	3
6	475	0.268920987319	2
6	481	0.269666992837	1
6	491	0.278219368998	2
6	516	0.286723379382	3
6	541	0.295227379382	2
6	562	0.303731379382	3
6	593	0.312235379382	2
6	626	0.320739379382	3
6	649	0.329243379382	2
6	670	0.337747379382	3
6	689	0.346251379382	2
6	714	0.354755379382	3
6	737	0.363259379382	2
6	758	0.371763379382	3
6	781	0.380267379382	2
6	802	0.388771379382	3
6	816	0.397275379382	1
6	827	0.400389835699	2
6	852	0.408893846083	3
6	864	0.417397846083	1
6	877	0.443647134621	2
6	889	0.452151134621	1
6	891	0.452151145005	3
6	911	0.460655145005	2
6	947	0.473361154583	3
6	969	0.481865154583	2
6	983	0.490369144199	1
6	985	0.490369154583	3
6	1011	0.498873154583	2
6	1042	0.508832366712	3
6	1065	0.517336366712	2
6	1079	0.525840356328	1
6	1081	0.525840366712	3
6	1090	0.534344366712	1
6	1106	0.54739771666	2
6	1118	0.55590171666	1
6	1120	0.555901727044	3
6	1136	0.564405727044	2
6	1143	0.56859563362	1
6	1152	0.572187864565	2
6	1166	0.580691864565	1
6	1168	0.580691874949	3
6	1175	0.589195874949	1
6	1191	0.636509068768	2
6	1203	0.645013068768	1
6	1205	0.645013079152	3
6	1225	0.653517079152	2
6	1261	0.663980069396	3
6	1274	0.672484069396	1
6	1284	0.672840576045	2
6	1308	0.681344586429	3
6	1322	0.689848586429	1
6	1332	0.691268610422	2
6	1356	0.699772620806	3
6	1370	0.708276620806	1
6	1381	0.713926904541	2
6	1395	0.722430904541	1
6	1397	0.722430914925	3
6	1404	0.730934914925	1
6	1420	0.749773183243	2
6	1432	0.758277183243	1
6	1434	0.758277193627	3
6	1454	0.766781193627	2
6	1490	0.779816426198	3
6	1512	0.788320426198	2
6	1526	0.796824415814	1
6	1528	0.796824426198	3
6	1537	0.805328426198	1
6	1553	0.830994446822	2
6	1565	0.839498446822	1
6	1567	0.839498457206	3
6	1574	0.848002457206	1
6	1589	0.856258302432	2
6	1602	0.864762302432	1
6	1604	0.864762312816	3
6	1632	0.873266312816	2
6	1667	0.881817315936	3
6	1686	0.890321315936	2
6	1707	0.898825315936	3
6	1721	0.907329315936	1
6	1734	0.926632254987	2
6	1757	0.935136265371	3
6	1778	0.943640265371	2
6	1792	0.952144254987	1
6	1794	0.952144265371	3
6	1812	0.960648265371	2
6	1819	0.962351526261	1
6	1830	0.979338372625	2
6	1842	0.987842372625	1
6	1844	0.987842383009	3
6	1851	0.996346383009	1
6	1867	1.009385314022	2
6	1890	1.017889324406	3
6	1911	1.026393324406	2
6	1925	1.034897314022	1
6	1927	1.034897324406	3
6	1936	1.043401324406	1
6	1951	1.046351067862	2
6	1964	1.054855067862	1
6	1966	1.054855078246	3
6	1982	1.063359078246	2
6	1988	1.063390043109	1
6	2000	1.084713031393	2
6	2012	1.093217031393	1
6	2014	1.093217041777	3
6	2021	1.101721041777	1
6	2037	1.115196685489	2
6	2068	1.123700695873	3
6	2085	1.132204695873	2
6	2106	1.140708695873	3
6	2129	1.149212695873	2
6	2154	1.157716695873	3
6	2168	1.166220695873	1
6	2181	1.177019514591	2
6	2204	1.185523524975	3
6	2225	1.194027524975	2
6	2254	1.202531524975	3
6	2281	1.211035524975	2
6	2306	1.219539524975	3
6	2325	1.228043524975	2
6	2354	1.236547524975	3
6	2377	1.245051524975	2
6	2398	1.253555524975	3
6	2421	1.262059524975	2
6	2446	1.270563524975	3
6	2465	1.279067524975	2
6	2479	1.287571514591	1
6	2481	1.287571524975	3
6	2499	1.296075524975	2
6	2506	1.300324925834	1
6	2515	1.304044830594	2
6	2529	1.312548830594	1
6	2531	1.312548840978	3
6	2538	1.321052840978	1
6	2553	1.330702913376	2
6	2566	1.339206913376	1
6	2568	1.33920692376	3
6	2584	1.34771092376	2
7	0	0	1
7	11	0.022315922865	3
7	23	0.030819922865	2
7	24	0.030819922865	3
7	27	0.030819922865	2
7	27	0.030819922865	0
7	47	0.039323922865	2
7	48	0.039323922865	3
7	63	0.047827922865	1
7	66	0.047827922865	0
7	85	0.056331922865	2
7	103	0.062500087138	3
7	118	0.071004087138	2
7	119	0.071004087138	3
7	122	0.071004087138	2
7	122	0.071004087138	0
7	137	0.079508087138	1
7	155	0.089529573224	3
7	167	0.098033573224	2
7	168	0.098033573224	3
7	171	0.098033573224	2
7	171	0.098033573224	0
7	185	0.106537573224	1
7	200	0.107003859279	3
7	213	0.115507859279	2
7	214	0.115507859279	3
7	217	0.115507859279	2
7	217	0.115507859279	0
7	233	0.124011859279	1
7	251	0.15031687607	3
7	263	0.15882087607	2
7	264	0.15882087607	3
7	267	0.15882087607	2
7	267	0.15882087607	0
7	281	0.16732487607	1
7	297	0.176622352905	3
7	311	0.185126352905	2
7	312	0.185126352905	3
7	315	0.185126352905	2
7	315	0.185126352905	0
7	329	0.193630352905	1
7	347	0.203690887876	3
7	353	0.212194887876	1
7	356	0.212194887876	0
7	373	0.220698887876	2
7	383	0.22101446093	1
7	393	0.226141728231	3
7	401	0.234645728231	1
7	404	0.234645728231	0
7	421	0.243149728231	2
7	432	0.249948460658	1
7	441	0.251912314999	3
7	449	0.260416314999	1
7	452	0.260416314999	0
7	469	0.268920314999	2
7	479	0.269666330901	1
7	489	0.278218707062	3
7	503	0.286722707062	2
7	504	0.286722707062	3
7	507	0.286722707062	2
7	507	0.286722707062	0
7	531	0.295226707062	2
7	532	0.295226707062	3
7	549	0.303730707062	2
7	550	0.303730707062	3
7	553	0.303730707062	2
7	553	0.303730707062	0
7	583	0.312234707062	2
7	584	0.312234707062	3
7	613	0.320738707062	2
7	614	0.320738707062	3
7	617	0.320738707062	2
7	617	0.320738707062	0
7	639	0.329242707062	2
7	640	0.329242707062	3
7	657	0.337746707062	2
7	658	0.337746707062	3
7	661	0.337746707062	2
7	661	0.337746707062	0
7	679	0.346250707062	2
7	680	0.346250707062	3
7	701	0.354754707062	2
7	702	0.354754707062	3
7	705	0.354754707062	2
7	705	0.354754707062	0
7	727	0.363258707062	2
7	728	0.363258707062	3
7	745	0.371762707062	2
7	746	0.371762707062	3
7	749	0.371762707062	2
7	749	0.371762707062	0
7	771	0.380266707062	2
7	772	0.380266707062	3
7	789	0.388770707062	2
7	790	0.388770707062	3
7	793	0.388770707062	2
7	793	0.388770707062	0
7	809	0.397274707062	1
7	825	0.400389173763	3
7	839	0.408893173763	2
7	840	0.408893173763	3
7	843	0.408893173763	2
7	843	0.408893173763	0
7	857	0.417397173763	1
7	875	0.443646472685	3
7	881	0.452150472685	1
7	884	0.452150472685	0
7	905	0.460654472685	2
7	923	0.464856482263	3
7	934	0.473360482263	2
7	935	0.473360482263	3
7	938	0.473360482263	2
7	938	0.473360482263	0
7	959	0.481864482263	2
7	960	0.481864482263	3
7	975	0.490368482263	1
7	978	0.490368482263	0
7	1005	0.498872482263	2
7	1018	0.500327694392	3
7	1029	0.508831694392	2
7	1030	0.508831694392	3
7	1033	0.508831694392	2
7	1033	0.508831694392	0
7	1055	0.517335694392	2
7	1056	0.517335694392	3
7	1071	0.525839694392	1
7	1074	0.525839694392	0
7	1084	0.534343694392	1
7	1104	0.547397054724	3
7	1110	0.555901054724	1
7	1113	0.555901054724	0
7	1130	0.564405054724	2
7	1141	0.568594971684	1
7	1150	0.572187202629	3
7	1158	0.580691202629	1
7	1161	0.580691202629	0
7	1169	0.589195202629	1
7	1189	0.636508406832	3
7	1195	0.645012406832	1
7	1198	0.645012406832	0
7	1219	0.653516406832	2
7	1233	0.655475397076	3
7	1248	0.663979397076	2
7	1249	0.663979397076	3
7	1252	0.663979397076	2
7	1252	0.663979397076	0
7	1267	0.672483397076	1
7	1282	0.672839914109	3
7	1295	0.681343914109	2
7	1296	0.681343914109	3
7	1299	0.681343914109	2
7	1299	0.681343914109	0
7	1315	0.689847914109	1
7	1330	0.691267948486	3
7	1343	0.699771948486	2
7	1344	0.699771948486	3
7	1347	0.699771948486	2
7	1347	0.699771948486	0
7	1363	0.708275948486	1
7	1379	0.713926242605	3
7	1387	0.722430242605	1
7	1390	0.722430242605	0
7	1398	0.730934242605	1
7	1418	0.749772521307	3
7	1424	0.758276521307	1
7	1427	0.758276521307	0
7	1448	0.766780521307	2
7	1462	0.771311753878	3
7	1477	0.779815753878	2
7	1478	0.779815753878	3
7	1481	0.779815753878	2
7	1481	0.779815753878	0
7	1502	0.788319753878	2
7	1503	0.788319753878	3
7	1518	0.796823753878	1
7	1521	0.796823753878	0
7	1531	0.805327753878	1
7	1551	0.830993784886	3
7	1557	0.839497784886	1
7	1560	0.839497784886	0
7	1568	0.848001784886	1
7	1587	0.856257640496	3
7	1594	0.864761640496	1
7	1597	0.864761640496	0
7	1626	0.873265640496	2
7	1639	0.873312643616	3
7	1654	0.881816643616	2
7	1655	0.881816643616	3
7	1658	0.881816643616	2
7	1658	0.881816643616	0
7	1676	0.890320643616	2
7	1677	0.890320643616	3
7	1694	0.898824643616	2
7	1695	0.898824643616	3
7	1698	0.898824643616	2
7	1698	0.898824643616	0
7	1714	0.907328643616	1
7	1732	0.926631593051	3
7	1744	0.935135593051	2
7	1745	0.935135593051	3
7	1748	0.935135593051	2
7	1748	0.935135593051	0
7	1768	0.943639593051	2
7	1769	0.943639593051	3
7	1784	0.952143593051	1
7	1787	0.952143593051	0
7	1806	0.960647593051	2
7	1817	0.962350864325	1
7	1828	0.979337710689	3
7	1834	0.987841710689	1
7	1837	0.987841710689	0
7	1845	0.996345710689	1
7	1865	1.009384652086	3
7	1877	1.017888652086	2
7	1878	1.017888652086	3
7	1881	1.017888652086	2
7	1881	1.017888652086	0
7	1901	1.026392652086	2
7	1902	1.026392652086	3
7	1917	1.034896652086	1
7	1920	1.034896652086	0
7	1930	1.043400652086	1
7	1949	1.046350405926	3
7	1956	1.054854405926	1
7	1959	1.054854405926	0
7	1976	1.063358405926	2
7	1986	1.063389381173	1
7	1998	1.084712369457	3
7	2004	1.093216369457	1
7	2007	1.093216369457	0
7	2015	1.101720369457	1
7	2035	1.115196023553	3
7	2055	1.123700023553	2
7	2056	1.123700023553	3
7	2059	1.123700023553	2
7	2059	1.123700023553	0
7	2075	1.132204023553	2
7	2076	1.132204023553	3
7	2093	1.140708023553	2
7	2094	1.140708023553	3
7	2097	1.140708023553	2
7	2097	1.140708023553	0
7	2119	1.149212023553	2
7	2120	1.149212023553	3
7	2141	1.157716023553	2
7	2142	1.157716023553	3
7	2145	1.157716023553	2
7	2145	1.157716023553	0
7	2161	1.166220023553	1
7	2179	1.177018852655	3
7	2191	1.185522852655	2
7	2192	1.185522852655	3
7	2195	1.185522852655	2
7	2195	1.185522852655	0
7	2215	1.194026852655	2
7	2216	1.194026852655	3
7	2241	1.202530852655	2
7	2242	1.202530852655	3
7	2245	1.202530852655	2
7	2245	1.202530852655	0
7	2271	1.211034852655	2
7	2272	1.211034852655	3
7	2293	1.219538852655	2
7	2294	1.219538852655	3
7	2297	1.219538852655	2
7	2297	1.219538852655	0
7	2315	1.228042852655	2
7	2316	1.228042852655	3
7	2341	1.236546852655	2
7	2342	1.236546852655	3
7	2345	1.236546852655	2
7	2345	1.236546852655	0
7	2367	1.245050852655	2
7	2368	1.245050852655	3
7	2385	1.253554852655	2
7	2386	1.253554852655	3
7	2389	1.253554852655	2
7	2389	1.253554852655	0
7	2411	1.262058852655	2
7	2412	1.262058852655	3
7	2433	1.270562852655	2
7	2434	1.270562852655	3
7	2437	1.270562852655	2
7	2437	1.270562852655	0
7	2455	1.279066852655	2
7	2456	1.279066852655	3
7	2471	1.287570852655	1
7	2474	1.287570852655	0
7	2493	1.296074852655	2
7	2504	1.300324263898	1
7	2513	1.304044168658	3
7	2521	1.312548168658	1
7	2524	1.312548168658	0
7	2532	1.321052168658	1
7	2551	1.33070225144	3
7	2558	1.33920625144	1
7	2561	1.33920625144	0
7	2578	1.34771025144	2
7	2596	1.352881547002	3
8	0	0	1
8	10	0.022315784508	3
8	20	0.030819784508	2
8	21	0.030819784508	3
8	43	0.039323784508	2
8	44	0.039323784508	3
8	61	0.047827784508	1
8	69	0.047828524206	3
8	86	0.056332524206	2
8	101	0.062499948781	3
8	115	0.071003948781	2
8	116	0.071003948781	3
8	134	0.079507948781	2
8	139	0.079508688479	1
8	154	0.089529434867	3
8	164	0.098033434867	2
8	165	0.098033434867	3
8	182	0.106537434867	2
8	187	0.106538174565	1
8	199	0.107003720922	3
8	210	0.115507720922	2
8	211	0.115507720922	3
8	230	0.124011720922	2
8	235	0.12401246062	1
8	250	0.150316737713	3
8	260	0.158820737713	2
8	261	0.158820737713	3
8	278	0.167324737713	2
8	283	0.167325477411	1
8	296	0.176622214548	3
8	308	0.185126214548	2
8	309	0.185126214548	3
8	326	0.193630214548	2
8	331	0.193630954246	1
8	346	0.203690749519	3
8	351	0.212194749519	1
8	359	0.212195489217	3
8	374	0.220699489217	2
8	382	0.221014322573	1
8	392	0.226141589874	3
8	399	0.234645589874	1
8	407	0.234646329572	3
8	422	0.243150329572	2
8	431	0.249948322301	1
8	440	0.251912176642	3
8	447	0.260416176642	1
8	455	0.26041691634	3
8	470	0.26892091634	2
8	478	0.269666192544	1
8	488	0.278218568705	3
8	500	0.286722568705	2
8	501	0.286722568705	3
8	527	0.295226568705	2
8	528	0.295226568705	3
8	546	0.303730568705	2
8	547	0.303730568705	3
8	579	0.312234568705	2
8	580	0.312234568705	3
8	610	0.320738568705	2
8	611	0.320738568705	3
8	635	0.329242568705	2
8	636	0.329242568705	3
8	654	0.337746568705	2
8	655	0.337746568705	3
8	675	0.346250568705	2
8	676	0.346250568705	3
8	698	0.354754568705	2
8	699	0.354754568705	3
8	723	0.363258568705	2
8	724	0.363258568705	3
8	742	0.371762568705	2
8	743	0.371762568705	3
8	767	0.380266568705	2
8	768	0.380266568705	3
8	786	0.388770568705	2
8	787	0.388770568705	3
8	806	0.397274568705	2
8	811	0.397275308403	1
8	824	0.400389035406	3
8	836	0.408893035406	2
8	837	0.408893035406	3
8	854	0.417397035406	2
8	859	0.417397775104	1
8	874	0.443646334328	3
8	879	0.452150334328	1
8	887	0.452151074026	3
8	906	0.460655074026	2
8	921	0.464856343906	3
8	931	0.473360343906	2
8	932	0.473360343906	3
8	955	0.481864343906	2
8	956	0.481864343906	3
8	973	0.490368343906	1
8	981	0.490369083604	3
8	1006	0.498873083604	2
8	1016	0.500327556035	3
8	1026	0.508831556035	2
8	1027	0.508831556035	3
8	1051	0.517335556035	2
8	1052	0.517335556035	3
8	1069	0.525839556035	1
8	1077	0.525840295733	3
8	1085	0.534344295733	1
8	1103	0.547396916367	3
8	1108	0.555900916367	1
8	1116	0.555901656065	3
8	1131	0.564405656065	2
8	1140	0.568594833327	1
8	1149	0.572187064272	3
8	1156	0.580691064272	1
8	1164	0.58069180397	3
8	1170	0.58919580397	1
8	1188	0.636508268475	3
8	1193	0.645012268475	1
8	1201	0.645013008173	3
8	1220	0.653517008173	2
8	1231	0.655475258719	3
8	1245	0.663979258719	2
8	1246	0.663979258719	3
8	1264	0.672483258719	2
8	1269	0.672483998417	1
8	1281	0.672839775752	3
8	1292	0.681343775752	2
8	1293	0.681343775752	3
8	1312	0.689847775752	2
8	1317	0.68984851545	1
8	1329	0.691267810129	3
8	1340	0.699771810129	2
8	1341	0.699771810129	3
8	1360	0.708275810129	2
8	1365	0.708276549827	1
8	1378	0.713926104248	3
8	1385	0.722430104248	1
8	1393	0.722430843946	3
8	1399	0.730934843946	1
8	1417	0.74977238295	3
8	1422	0.75827638295	1
8	1430	0.758277122648	3
8	1449	0.766781122648	2
8	1460	0.771311615521	3
8	1474	0.779815615521	2
8	1475	0.779815615521	3
8	1498	0.788319615521	2
8	1499	0.788319615521	3
8	1516	0.796823615521	1
8	1524	0.796824355219	3
8	1532	0.805328355219	1
8	1550	0.830993646529	3
8	1555	0.839497646529	1
8	1563	0.839498386227	3
8	1569	0.848002386227	1
8	1586	0.856257502139	3
8	1592	0.864761502139	1
8	1600	0.864762241837	3
8	1627	0.873266241837	2
8	1637	0.873312505259	3
8	1651	0.881816505259	2
8	1652	0.881816505259	3
8	1672	0.890320505259	2
8	1673	0.890320505259	3
8	1691	0.898824505259	2
8	1692	0.898824505259	3
8	1711	0.907328505259	2
8	1716	0.907329244957	1
8	1731	0.926631454694	3
8	1741	0.935135454694	2
8	1742	0.935135454694	3
8	1764	0.943639454694	2
8	1765	0.943639454694	3
8	1782	0.952143454694	1
8	1790	0.952144194392	3
8	1807	0.960648194392	2
8	1816	0.962350725968	1
8	1827	0.979337572332	3
8	1832	0.987841572332	1
8	1840	0.98784231203	3
8	1846	0.99634631203	1
8	1864	1.009384513729	3
8	1874	1.017888513729	2
8	1875	1.017888513729	3
8	1897	1.026392513729	2
8	1898	1.026392513729	3
8	1915	1.034896513729	1
8	1923	1.034897253427	3
8	1931	1.043401253427	1
8	1948	1.046350267569	3
8	1954	1.054854267569	1
8	1962	1.054855007267	3
8	1977	1.063359007267	2
8	1985	1.063389242816	1
8	1997	1.0847122311	3
8	2002	1.0932162311	1
8	2010	1.093216970798	3
8	2016	1.101720970798	1
8	2034	1.115195885196	3
8	2052	1.123699885196	2
8	2053	1.123699885196	3
8	2071	1.132203885196	2
8	2072	1.132203885196	3
8	2090	1.140707885196	2
8	2091	1.140707885196	3
8	2115	1.149211885196	2
8	2116	1.149211885196	3
8	2138	1.157715885196	2
8	2139	1.157715885196	3
8	2158	1.166219885196	2
8	2163	1.166220624894	1
8	2178	1.177018714298	3
8	2188	1.185522714298	2
8	2189	1.185522714298	3
8	2211	1.194026714298	2
8	2212	1.194026714298	3
8	2238	1.202530714298	2
8	2239	1.202530714298	3
8	2267	1.211034714298	2
8	2268	1.211034714298	3
8	2290	1.219538714298	2
8	2291	1.219538714298	3
8	2311	1.228042714298	2
8	2312	1.228042714298	3
8	2338	1.236546714298	2
8	2339	1.236546714298	3
8	2363	1.245050714298	2
8	2364	1.245050714298	3
8	2382	1.253554714298	2
8	2383	1.253554714298	3
8	2407	1.262058714298	2
8	2408	1.262058714298	3
8	2430	1.270562714298	2
8	2431	1.270562714298	3
8	2451	1.279066714298	2
8	2452	1.279066714298	3
8	2469	1.287570714298	1
8	2477	1.287571453996	3
8	2494	1.296075453996	2
8	2503	1.300324125541	1
8	2512	1.304044030301	3
8	2519	1.312548030301	1
8	2527	1.312548769999	3
8	2533	1.321052769999	1
8	2550	1.330702113083	3
8	2556	1.339206113083	1
8	2564	1.339206852781	3
8	2579	1.347710852781	2
8	2594	1.352881408645	3
9	0	0	1
9	12	0.022316334628	2
9	32	0.030820524206	3
9	52	0.039324524206	2
9	68	0.047828334628	1
9	70	0.047828524206	3
9	87	0.056332524206	2
9	127	0.071004688479	3
9	140	0.079508688479	1
9	156	0.089529984987	2
9	176	0.098034174565	3
9	188	0.106538174565	1
9	201	0.107004271042	2
9	222	0.11550846062	3
9	236	0.12401246062	1
9	252	0.150317287833	2
9	272	0.158821477411	3
9	284	0.167325477411	1
9	298	0.176622764668	2
9	320	0.185126954246	3
9	332	0.193630954246	1
9	348	0.203691299639	2
9	358	0.212195299639	1
9	360	0.212195489217	3
9	375	0.220699489217	2
9	384	0.221014872693	1
9	394	0.226142139994	2
9	406	0.234646139994	1
9	408	0.234646329572	3
9	423	0.243150329572	2
9	433	0.249948872421	1
9	442	0.251912726762	2
9	454	0.260416726762	1
9	456	0.26041691634	3
9	471	0.26892091634	2
9	480	0.269666742664	1
9	490	0.278219118825	2
9	512	0.286723308403	3
9	536	0.295227308403	2
9	558	0.303731308403	3
9	588	0.312235308403	2
9	622	0.320739308403	3
9	644	0.329243308403	2
9	666	0.337747308403	3
9	684	0.346251308403	2
9	710	0.354755308403	3
9	732	0.363259308403	2
9	754	0.371763308403	3
9	776	0.380267308403	2
9	798	0.388771308403	3
9	812	0.397275308403	1
9	826	0.400389585526	2
9	848	0.408893775104	3
9	860	0.417397775104	1
9	876	0.443646884448	2
9	886	0.452150884448	1
9	888	0.452151074026	3
9	907	0.460655074026	2
9	943	0.473361083604	3
9	964	0.481865083604	2
9	980	0.490368894026	1
9	982	0.490369083604	3
9	1007	0.498873083604	2
9	1038	0.508832295733	3
9	1060	0.517336295733	2
9	1076	0.525840106155	1
9	1078	0.525840295733	3
9	1086	0.534344295733	1
9	1105	0.547397466487	2
9	1115	0.555901466487	1
9	1117	0.555901656065	3
9	1132	0.564405656065	2
9	1142	0.568595383447	1
9	1151	0.572187614392	2
9	1163	0.580691614392	1
9	1165	0.58069180397	3
9	1171	0.58919580397	1
9	1190	0.636508818595	2
9	1200	0.645012818595	1
9	1202	0.645013008173	3
9	1221	0.653517008173	2
9	1257	0.663979998417	3
9	1270	0.672483998417	1
9	1283	0.672840325872	2
9	1304	0.68134451545	3
9	1318	0.68984851545	1
9	1331	0.691268360249	2
9	1352	0.699772549827	3
9	1366	0.708276549827	1
9	1380	0.713926654368	2
9	1392	0.722430654368	1
9	1394	0.722430843946	3
9	1400	0.730934843946	1
9	1419	0.74977293307	2
9	1429	0.75827693307	1
9	1431	0.758277122648	3
9	1450	0.766781122648	2
9	1486	0.779816355219	3
9	1507	0.788320355219	2
9	1523	0.796824165641	1
9	1525	0.796824355219	3
9	1533	0.805328355219	1
9	1552	0.830994196649	2
9	1562	0.839498196649	1
9	1564	0.839498386227	3
9	1570	0.848002386227	1
9	1588	0.856258052259	2
9	1599	0.864762052259	1
9	1601	0.864762241837	3
9	1628	0.873266241837	2
9	1663	0.881817244957	3
9	1681	0.890321244957	2
9	1703	0.898825244957	3
9	1717	0.907329244957	1
9	1733	0.926632004814	2
9	1753	0.935136194392	3
9	1773	0.943640194392	2
9	1789	0.952144004814	1
9	1791	0.952144194392	3
9	1808	0.960648194392	2
9	1818	0.962351276088	1
9	1829	0.979338122452	2
9	1839	0.987842122452	1
9	1841	0.98784231203	3
9	1847	0.99634631203	1
9	1866	1.009385063849	2
9	1886	1.017889253427	3
9	1906	1.026393253427	2
9	1922	1.034897063849	1
9	1924	1.034897253427	3
9	1932	1.043401253427	1
9	1950	1.046350817689	2
9	1961	1.054854817689	1
9	1963	1.054855007267	3
9	1978	1.063359007267	2
9	1987	1.063389792936	1
9	1999	1.08471278122	2
9	2009	1.09321678122	1
9	2011	1.093216970798	3
9	2017	1.101720970798	1
9	2036	1.115196435316	2
9	2064	1.123700624894	3
9	2080	1.132204624894	2
9	2102	1.140708624894	3
9	2124	1.149212624894	2
9	2150	1.157716624894	3
9	2164	1.166220624894	1
9	2180	1.177019264418	2
9	2200	1.185523453996	3
9	2220	1.194027453996	2
9	2250	1.202531453996	3
9	2276	1.211035453996	2
9	2302	1.219539453996	3
9	2320	1.228043453996	2
9	2350	1.236547453996	3
9	2372	1.245051453996	2
9	2394	1.253555453996	3
9	2416	1.262059453996	2
9	2442	1.270563453996	3
9	2460	1.279067453996	2
9	2476	1.287571264418	1
9	2478	1.287571453996	3
9	2495	1.296075453996	2
9	2505	1.300324675661	1
9	2514	1.304044580421	2
9	2526	1.312548580421	1
9	2528	1.312548769999	3
9	2534	1.321052769999	1
9	2552	1.330702663203	2
9	2563	1.339206663203	1
9	2565	1.339206852781	3
9	2580	1.347710852781	2
10	4	0.022315250545	1000
10	14	0.026135524235	1000
10	37	0.033928880414	1000
10	76	0.053995414818	1000
10	94	0.061842005625	1000
10	109	0.067828469733	1000
10	149	0.089528900904	1000
10	158	0.094467836859	1000
10	194	0.107003186959	1000
10	204	0.112514164606	1000
10	245	0.15031620375	1000
10	254	0.152130973994	1000
10	291	0.176621680585	1000
10	302	0.184322190657	1000
10	341	0.203690215556	1000
10	364	0.21250978861	1000
10	387	0.226141055911	1000
10	412	0.241443788338	1000
10	435	0.251911642679	1000
10	460	0.261161658581	1000
10	483	0.278218034742	1000
10	493	0.27956138867	1000
10	517	0.287261725094	1000
10	521	0.289736164478	1000
10	565	0.305759646693	1000
10	569	0.308688228582	1000
10	573	0.31043156491	1000
10	596	0.315132814638	1000
10	600	0.317078452511	1000
10	604	0.320095755696	1000
10	629	0.325958440288	1000
10	692	0.353905400779	1000
10	717	0.361078353701	1000
10	759	0.372472288703	1000
10	819	0.400388501443	1000
10	828	0.401643236152	1000
10	869	0.443645800365	1000
10	892	0.456351809943	1000
10	901	0.458600922735	1000
10	914	0.463921771078	1000
10	949	0.480590283355	1000
10	986	0.491823022072	1000
10	997	0.49654037276	1000
10	1001	0.497010570637	1000
10	1044	0.509081022699	1000
10	1098	0.547396382404	1000
10	1121	0.560090299364	1000
10	1144	0.572186530309	1000
10	1183	0.636507734512	1000
10	1206	0.646970724756	1000
10	1215	0.653391500881	1000
10	1238	0.6611168729	1000
10	1276	0.672839241789	1000
10	1286	0.677789256548	1000
10	1324	0.691267276166	1000
10	1334	0.695845946286	1000
10	1373	0.713925570285	1000
10	1412	0.749771848987	1000
10	1435	0.762807081558	1000
10	1444	0.762971056499	1000
10	1467	0.774672279709	1000
10	1492	0.788110052098	1000
10	1545	0.830993112566	1000
10	1581	0.856256968176	1000
10	1605	0.864807971296	1000
10	1614	0.865495894413	1000
10	1618	0.872695257053	1000
10	1622	0.872937538591	1000
10	1645	0.879932079257	1000
10	1726	0.926630920731	1000
10	1735	0.931975954274	1000
10	1758	0.939843709686	1000
10	1797	0.953846192005	1000
10	1822	0.979337038369	1000
10	1859	1.009383979766	1000
10	1868	1.012316725143	1000
10	1891	1.022310847336	1000
10	1943	1.046349733606	1000
10	1967	1.054884708853	1000
10	1992	1.084711697137	1000
10	2029	1.115195351233	1000
10	2038	1.116236597021	1000
10	2042	1.120140682007	1000
10	2046	1.120253491015	1000
10	2109	1.142421422827	1000
10	2132	1.154922790677	1000
10	2173	1.177018180335	1000
10	2182	1.18070839302	1000
10	2205	1.186794794499	1000
10	2228	1.196452363297	1000
10	2232	1.198615390321	1000
10	2257	1.204156161074	1000
10	2261	1.206056259149	1000
10	2284	1.216173255535	1000
10	2328	1.230771359376	1000
10	2332	1.234855520235	1000
10	2357	1.241670370077	1000
10	2401	1.258602662989	1000
10	2424	1.264654788668	1000
10	2484	1.291819591578	1000
10	2507	1.304043496338	1000
10	2545	1.33070157912	1000
10	2569	1.344376874682	1000
10	2587	1.351533427414	1000
11	6	0.022315250545	1008
11	15	0.026135524235	1008
11	38	0.033928880414	1008
11	77	0.053995414818	1008
11	95	0.061842005625	1008
11	110	0.067828469733	1008
11	150	0.089528900904	1008
11	159	0.094467836859	1008
11	195	0.107003186959	1008
11	205	0.112514164606	1008
11	246	0.15031620375	1008
11	255	0.152130973994	1008
11	292	0.176621680585	1008
11	303	0.184322190657	1008
11	342	0.203690215556	1008
11	365	0.21250978861	1008
11	388	0.226141055911	1008
11	413	0.241443788338	1008
11	436	0.251911642679	1008
11	461	0.261161658581	1008
11	484	0.278218034742	1008
11	494	0.27956138867	1008
11	518	0.287261725094	1008
11	522	0.289736164478	1008
11	566	0.305759646693	1008
11	570	0.308688228582	1008
11	574	0.31043156491	1008
11	597	0.315132814638	1008
11	601	0.317078452511	1008
11	605	0.320095755696	1008
11	630	0.325958440288	1008
11	693	0.353905400779	1008
11	718	0.361078353701	1008
11	760	0.372472288703	1008
11	820	0.400388501443	1008
11	829	0.401643236152	1008
11	870	0.443645800365	1008
11	893	0.456351809943	1008
11	902	0.458600922735	1008
11	915	0.463921771078	1008
11	950	0.480590283355	1008
11	987	0.491823022072	1008
11	998	0.49654037276	1008
11	1002	0.497010570637	1008
11	1045	0.509081022699	1008
11	1099	0.547396382404	1008
11	1122	0.560090299364	1008
11	1145	0.572186530309	1008
11	1184	0.636507734512	1008
11	1207	0.646970724756	1008
11	1216	0.653391500881	1008
11	1239	0.6611168729	1008
11	1277	0.672839241789	1008
11	1287	0.677789256548	1008
11	1325	0.691267276166	1008
11	1335	0.695845946286	1008
11	1374	0.713925570285	1008
11	1413	0.749771848987	1008
11	1436	0.762807081558	1008
11	1445	0.762971056499	1008
11	1468	0.774672279709	1008
11	1493	0.788110052098	1008
11	1546	0.830993112566	1008
11	1582	0.856256968176	1008
11	1606	0.864807971296	1008
11	1615	0.865495894413	1008
11	1619	0.872695257053	1008
11	1623	0.872937538591	1008
11	1646	0.879932079257	1008
11	1727	0.926630920731	1008
11	1736	0.931975954274	1008
11	1759	0.939843709686	1008
11	1798	0.953846192005	1008
11	1823	0.979337038369	1008
11	1860	1.009383979766	1008
11	1869	1.012316725143	1008
11	1892	1.022310847336	1008
11	1944	1.046349733606	1008
11	1968	1.054884708853	1008
11	1993	1.084711697137	1008
11	2030	1.115195351233	1008
11	2039	1.116236597021	1008
11	2043	1.120140682007	1008
11	2047	1.120253491015	1008
11	2110	1.142421422827	1008
11	2133	1.154922790677	1008
11	2174	1.177018180335	1008
11	2183	1.18070839302	1008
11	2206	1.186794794499	1008
11	2229	1.196452363297	1008
11	2233	1.198615390321	1008
11	2258	1.204156161074	1008
11	2262	1.206056259149	1008
11	2285	1.216173255535	1008
11	2329	1.230771359376	1008
11	2333	1.234855520235	1008
11	2358	1.241670370077	1008
11	2402	1.258602662989	1008
11	2425	1.264654788668	1008
11	2485	1.291819591578	1008
11	2508	1.304043496338	1008
11	2546	1.33070157912	1008
11	2570	1.344376874682	1008
11	2588	1.351533427414	1008
12	8	0.022315250545	1028
12	17	0.026135524235	1028
12	40	0.033928880414	1028
12	79	0.053995414818	1028
12	97	0.061842005625	1028
12	112	0.067828469733	1028
12	152	0.089528900904	1028
12	161	0.094467836859	1028
12	197	0.107003186959	1028
12	207	0.112514164606	1028
12	248	0.15031620375	1028
12	257	0.152130973994	1028
12	294	0.176621680585	1028
12	305	0.184322190657	1028
12	344	0.203690215556	1028
12	367	0.21250978861	1028
12	390	0.226141055911	1028
12	415	0.241443788338	1028
12	438	0.251911642679	1028
12	463	0.261161658581	1028
12	486	0.278218034742	1028
12	496	0.27956138867	1028
12	520	0.287261725094	1028
12	524	0.289736164478	1028
12	568	0.305759646693	1028
12	572	0.308688228582	1028
12	576	0.31043156491	1028
12	599	0.315132814638	1028
12	603	0.317078452511	1028
12	607	0.320095755696	1028
12	632	0.325958440288	1028
12	695	0.353905400779	1028
12	720	0.361078353701	1028
12	762	0.372472288703	1028
12	822	0.400388501443	1028
12	831	0.401643236152	1028
12	872	0.443645800365	1028
12	895	0.456351809943	1028
12	904	0.458600922735	1028
12	917	0.463921771078	1028
12	952	0.480590283355	1028
12	989	0.491823022072	1028
12	1000	0.49654037276	1028
12	1004	0.497010570637	1028
12	1047	0.509081022699	1028
12	1101	0.547396382404	1028
12	1124	0.560090299364	1028
12	1147	0.572186530309	1028
12	1186	0.636507734512	1028
12	1209	0.646970724756	1028
12	1218	0.653391500881	1028
12	1241	0.6611168729	1028
12	1279	0.672839241789	1028
12	1289	0.677789256548	1028
12	1327	0.691267276166	1028
12	1337	0.695845946286	1028
12	1376	0.713925570285	1028
12	1415	0.749771848987	1028
12	1438	0.762807081558	1028
12	1447	0.762971056499	1028
12	1470	0.774672279709	1028
12	1495	0.788110052098	1028
12	1548	0.830993112566	1028
12	1584	0.856256968176	1028
12	1608	0.864807971296	1028
12	1617	0.865495894413	1028
12	1621	0.872695257053	1028
12	1625	0.872937538591	1028
12	1648	0.879932079257	1028
12	1729	0.926630920731	1028
12	1738	0.931975954274	1028
12	1761	0.939843709686	1028
12	1800	0.953846192005	1028
12	1825	0.979337038369	1028
12	1862	1.009383979766	1028
12	1871	1.012316725143	1028
12	1894	1.022310847336	1028
12	1946	1.046349733606	1028
12	1970	1.054884708853	1028
12	1995	1.084711697137	1028
12	2032	1.115195351233	1028
12	2041	1.116236597021	1028
12	2045	1.120140682007	1028
12	2049	1.120253491015	1028
12	2112	1.142421422827	1028
12	2135	1.154922790677	1028
12	2176	1.177018180335	1028
12	2185	1.18070839302	1028
12	2208	1.186794794499	1028
12	2231	1.196452363297	1028
12	2235	1.198615390321	1028
12	2260	1.204156161074	1028
12	2264	1.206056259149	1028
12	2287	1.216173255535	1028
12	2331	1.230771359376	1028
12	2335	1.234855520235	1028
12	2360	1.241670370077	1028
12	2404	1.258602662989	1028
12	2427	1.264654788668	1028
12	2487	1.291819591578	1028
12	2510	1.304043496338	1028
12	2548	1.33070157912	1028
12	2572	1.344376874682	1028
12	2590	1.351533427414	1028
13	8	0.022315250545	1028
13	17	0.026135524235	1028
13	40	0.033928880414	1028
13	79	0.053995414818	1028
13	97	0.061842005625	1028
13	112	0.067828469733	1028
13	152	0.089528900904	1028
13	161	0.094467836859	1028
13	197	0.107003186959	1028
13	207	0.112514164606	1028
13	248	0.15031620375	1028
13	257	0.152130973994	1028
13	294	0.176621680585	1028
13	305	0.184322190657	1028
13	344	0.203690215556	1028
13	367	0.21250978861	1028
13	390	0.226141055911	1028
13	415	0.241443788338	1028
13	438	0.251911642679	1028
13	463	0.261161658581	1028
13	486	0.278218034742	1028
13	496	0.27956138867	1028
13	520	0.287261725094	1028
13	524	0.289736164478	1028
13	568	0.305759646693	1028
13	572	0.308688228582	1028
13	576	0.31043156491	1028
13	599	0.315132814638	1028
13	603	0.317078452511	1028
13	607	0.320095755696	1028
13	632	0.325958440288	1028
13	695	0.353905400779	1028
13	720	0.361078353701	1028
13	762	0.372472288703	1028
13	822	0.400388501443	1028
13	831	0.401643236152	1028
13	872	0.443645800365	1028
13	895	0.456351809943	1028
13	904	0.458600922735	1028
13	917	0.463921771078	1028
13	952	0.480590283355	1028
13	989	0.491823022072	1028
13	1000	0.49654037276	1028
13	1004	0.497010570637	1028
13	1047	0.509081022699	1028
13	1101	0.547396382404	1028
13	1124	0.560090299364	1028
13	1147	0.572186530309	1028
13	1186	0.636507734512	1028
13	1209	0.646970724756	1028
13	1218	0.653391500881	1028
13	1241	0.6611168729	1028
13	1279	0.672839241789	1028
13	1289	0.677789256548	1028
13	1327	0.691267276166	1028
13	1337	0.695845946286	1028
13	1376	0.713925570285	1028
13	1415	0.749771848987	1028
13	1438	0.762807081558	1028
13	1447	0.762971056499	1028
13	1470	0.774672279709	1028
13	1495	0.788110052098	1028
13	1548	0.830993112566	1028
13	1584	0.856256968176	1028
13	1608	0.864807971296	1028
13	1617	0.865495894413	1028
13	1621	0.872695257053	1028
13	1625	0.872937538591	1028
13	1648	0.879932079257	1028
13	1729	0.926630920731	1028
13	1738	0.931975954274	1028
13	1761	0.939843709686	1028
13	1800	0.953846192005	1028
13	1825	0.979337038369	1028
13	1862	1.009383979766	1028
13	1871	1.012316725143	1028
13	1894	1.022310847336	1028
13	1946	1.046349733606	1028
13	1970	1.054884708853	1028
13	1995	1.084711697137	1028
13	2032	1.115195351233	1028
13	2041	1.116236597021	1028
13	2045	1.120140682007	1028
13	2049	1.120253491015	1028
13	2112	1.142421422827	1028
13	2135	1.154922790677	1028
13	2176	1.177018180335	1028
13	2185	1.18070839302	1028
13	2208	1.186794794499	1028
13	2231	1.196452363297	1028
13	2235	1.198615390321	1028
13	2260	1.204156161074	1028
13	2264	1.206056259149	1028
13	2287	1.216173255535	1028
13	2331	1.230771359376	1028
13	2335	1.234855520235	1028
13	2360	1.241670370077	1028
13	2404	1.258602662989	1028
13	2427	1.264654788668	1028
13	2487	1.291819591578	1028
13	2510	1.304043496338	1028
13	2548	1.33070157912	1028
13	2572	1.344376874682	1028
13	2590	1.351533427414	1028
14	8	0.022315250545	1
14	8	0.022315250545	0
14	17	0.026135524235	1
14	18	0.030819250545	0
14	40	0.033928880414	1
14	41	0.039323250545	0
14	79	0.053995414818	1
14	79	0.053995414818	0
14	97	0.061842005625	1
14	98	0.062499414818	0
14	112	0.067828469733	1
14	113	0.071003414818	0
14	152	0.089528900904	1
14	152	0.089528900904	0
14	161	0.094467836859	1
14	162	0.098032900904	0
14	197	0.107003186959	1
14	197	0.107003186959	0
14	207	0.112514164606	1
14	208	0.115507186959	0
14	248	0.15031620375	1
14	248	0.15031620375	0
14	257	0.152130973994	1
14	258	0.15882020375	0
14	294	0.176621680585	1
14	294	0.176621680585	0
14	305	0.184322190657	1
14	306	0.185125680585	0
14	344	0.203690215556	1
14	344	0.203690215556	0
14	367	0.21250978861	1
14	367	0.21250978861	0
14	390	0.226141055911	1
14	390	0.226141055911	0
14	415	0.241443788338	1
14	415	0.241443788338	0
14	438	0.251911642679	1
14	438	0.251911642679	0
14	463	0.261161658581	1
14	463	0.261161658581	0
14	486	0.278218034742	1
14	486	0.278218034742	0
14	496	0.27956138867	1
14	498	0.286722034742	0
14	520	0.287261725094	1
14	524	0.289736164478	2
14	525	0.295226034742	1
14	544	0.303730034742	0
14	568	0.305759646693	1
14	572	0.308688228582	2
14	576	0.31043156491	3
14	577	0.312234034742	2
14	599	0.315132814638	3
14	603	0.317078452511	4
14	607	0.320095755696	5
14	608	0.320738034742	4
14	632	0.325958440288	5
14	633	0.329242034742	4
14	652	0.337746034742	3
14	673	0.346250034742	2
14	695	0.353905400779	3
14	696	0.354754034742	2
14	720	0.361078353701	3
14	721	0.363258034742	2
14	740	0.371762034742	1
14	762	0.372472288703	2
14	765	0.380266034742	1
14	784	0.388770034742	0
14	822	0.400388501443	1
14	822	0.400388501443	0
14	831	0.401643236152	1
14	834	0.408892501443	0
14	872	0.443645800365	1
14	872	0.443645800365	0
14	895	0.456351809943	1
14	895	0.456351809943	0
14	904	0.458600922735	1
14	917	0.463921771078	2
14	918	0.464855809943	1
14	929	0.473359809943	0
14	952	0.480590283355	1
14	953	0.481863809943	0
14	989	0.491823022072	1
14	989	0.491823022072	0
14	1000	0.49654037276	1
14	1004	0.497010570637	2
14	1013	0.500327022072	1
14	1024	0.508831022072	0
14	1047	0.509081022699	1
14	1049	0.517335022072	0
14	1101	0.547396382404	1
14	1101	0.547396382404	0
14	1124	0.560090299364	1
14	1124	0.560090299364	0
14	1147	0.572186530309	1
14	1147	0.572186530309	0
14	1186	0.636507734512	1
14	1186	0.636507734512	0
14	1209	0.646970724756	1
14	1209	0.646970724756	0
14	1218	0.653391500881	1
14	1228	0.655474724756	0
14	1241	0.6611168729	1
14	1243	0.663978724756	0
14	1279	0.672839241789	1
14	1279	0.672839241789	0
14	1289	0.677789256548	1
14	1290	0.681343241789	0
14	1327	0.691267276166	1
14	1327	0.691267276166	0
14	1337	0.695845946286	1
14	1338	0.699771276166	0
14	1376	0.713925570285	1
14	1376	0.713925570285	0
14	1415	0.749771848987	1
14	1415	0.749771848987	0
14	1438	0.762807081558	1
14	1438	0.762807081558	0
14	1447	0.762971056499	1
14	1457	0.771311081558	0
14	1470	0.774672279709	1
14	1472	0.779815081558	0
14	1495	0.788110052098	1
14	1496	0.788319081558	0
14	1548	0.830993112566	1
14	1548	0.830993112566	0
14	1584	0.856256968176	1
14	1584	0.856256968176	0
14	1608	0.864807971296	1
14	1608	0.864807971296	0
14	1617	0.865495894413	1
14	1621	0.872695257053	2
14	1625	0.872937538591	3
14	1634	0.873311971296	2
14	1648	0.879932079257	3
14	1649	0.881815971296	2
14	1670	0.890319971296	1
14	1689	0.898823971296	0
14	1729	0.926630920731	1
14	1729	0.926630920731	0
14	1738	0.931975954274	1
14	1739	0.935134920731	0
14	1761	0.939843709686	1
14	1762	0.943638920731	0
14	1800	0.953846192005	1
14	1800	0.953846192005	0
14	1825	0.979337038369	1
14	1825	0.979337038369	0
14	1862	1.009383979766	1
14	1862	1.009383979766	0
14	1871	1.012316725143	1
14	1872	1.017887979766	0
14	1894	1.022310847336	1
14	1895	1.026391979766	0
14	1946	1.046349733606	1
14	1946	1.046349733606	0
14	1970	1.054884708853	1
14	1970	1.054884708853	0
14	1995	1.084711697137	1
14	1995	1.084711697137	0
14	2032	1.115195351233	1
14	2032	1.115195351233	0
14	2041	1.116236597021	1
14	2045	1.120140682007	2
14	2049	1.120253491015	3
14	2050	1.123699351233	2
14	2069	1.132203351233	1
14	2088	1.140707351233	0
14	2112	1.142421422827	1
14	2113	1.149211351233	0
14	2135	1.154922790677	1
14	2136	1.157715351233	0
14	2176	1.177018180335	1
14	2176	1.177018180335	0
14	2185	1.18070839302	1
14	2186	1.185522180335	0
14	2208	1.186794794499	1
14	2209	1.194026180335	0
14	2231	1.196452363297	1
14	2235	1.198615390321	2
14	2236	1.202530180335	1
14	2260	1.204156161074	2
14	2264	1.206056259149	3
14	2265	1.211034180335	2
14	2287	1.216173255535	3
14	2288	1.219538180335	2
14	2309	1.228042180335	1
14	2331	1.230771359376	2
14	2335	1.234855520235	3
14	2336	1.236546180335	2
14	2360	1.241670370077	3
14	2361	1.245050180335	2
14	2380	1.253554180335	1
14	2404	1.258602662989	2
14	2405	1.262058180335	1
14	2427	1.264654788668	2
14	2428	1.270562180335	1
14	2449	1.279066180335	0
14	2487	1.291819591578	1
14	2487	1.291819591578	0
14	2510	1.304043496338	1
14	2510	1.304043496338	0
14	2548	1.33070157912	1
14	2548	1.33070157912	0
14	2572	1.344376874682	1
14	2572	1.344376874682	0
14	2590	1.351533427414	1
14	2591	1.352880874682	0
15	8	0.022315250545	1028
15	18	0.030819250545	1028
15	41	0.039323250545	1028
15	79	0.053995414818	1028
15	98	0.062499414818	1028
15	113	0.071003414818	1028
15	152	0.089528900904	1028
15	162	0.098032900904	1028
15	197	0.107003186959	1028
15	208	0.115507186959	1028
15	248	0.15031620375	1028
15	258	0.15882020375	1028
15	294	0.176621680585	1028
15	306	0.185125680585	1028
15	344	0.203690215556	1028
15	367	0.21250978861	1028
15	390	0.226141055911	1028
15	415	0.241443788338	1028
15	438	0.251911642679	1028
15	463	0.261161658581	1028
15	486	0.278218034742	1028
15	498	0.286722034742	1028
15	525	0.295226034742	1028
15	544	0.303730034742	1028
15	577	0.312234034742	1028
15	608	0.320738034742	1028
15	633	0.329242034742	1028
15	652	0.337746034742	1028
15	673	0.346250034742	1028
15	696	0.354754034742	1028
15	721	0.363258034742	1028
15	740	0.371762034742	1028
15	765	0.380266034742	1028
15	784	0.388770034742	1028
15	822	0.400388501443	1028
15	834	0.408892501443	1028
15	872	0.443645800365	1028
15	895	0.456351809943	1028
15	918	0.464855809943	1028
15	929	0.473359809943	1028
15	953	0.481863809943	1028
15	989	0.491823022072	1028
15	1013	0.500327022072	1028
15	1024	0.508831022072	1028
15	1049	0.517335022072	1028
15	1101	0.547396382404	1028
15	1124	0.560090299364	1028
15	1147	0.572186530309	1028
15	1186	0.636507734512	1028
15	1209	0.646970724756	1028
15	1228	0.655474724756	1028
15	1243	0.663978724756	1028
15	1279	0.672839241789	1028
15	1290	0.681343241789	1028
15	1327	0.691267276166	1028
15	1338	0.699771276166	1028
15	1376	0.713925570285	1028
15	1415	0.749771848987	1028
15	1438	0.762807081558	1028
15	1457	0.771311081558	1028
15	1472	0.779815081558	1028
15	1496	0.788319081558	1028
15	1548	0.830993112566	1028
15	1584	0.856256968176	1028
15	1608	0.864807971296	1028
15	1634	0.873311971296	1028
15	1649	0.881815971296	1028
15	1670	0.890319971296	1028
15	1689	0.898823971296	1028
15	1729	0.926630920731	1028
15	1739	0.935134920731	1028
15	1762	0.943638920731	1028
15	1800	0.953846192005	1028
15	1825	0.979337038369	1028
15	1862	1.009383979766	1028
15	1872	1.017887979766	1028
15	1895	1.026391979766	1028
15	1946	1.046349733606	1028
15	1970	1.054884708853	1028
15	1995	1.084711697137	1028
15	2032	1.115195351233	1028
15	2050	1.123699351233	1028
15	2069	1.132203351233	1028
15	2088	1.140707351233	1028
15	2113	1.149211351233	1028
15	2136	1.157715351233	1028
15	2176	1.177018180335	1028
15	2186	1.185522180335	1028
15	2209	1.194026180335	1028
15	2236	1.202530180335	1028
15	2265	1.211034180335	1028
15	2288	1.219538180335	1028
15	2309	1.228042180335	1028
15	2336	1.236546180335	1028
15	2361	1.245050180335	1028
15	2380	1.253554180335	1028
15	2405	1.262058180335	1028
15	2428	1.270562180335	1028
15	2449	1.279066180335	1028
15	2487	1.291819591578	1028
15	2510	1.304043496338	1028
15	2548	1.33070157912	1028
15	2572	1.344376874682	1028
15	2591	1.352880874682	1028
16	8	0.022315250545	0
16	18	0.030819250545	0.00468372631
16	41	0.039323250545	0.005394370131
16	79	0.053995414818	0
16	98	0.062499414818	0.000657409193
16	113	0.071003414818	0.003174945085
16	152	0.089528900904	0
16	162	0.098032900904	0.003565064045
16	197	0.107003186959	0
16	208	0.115507186959	0.002993022353
16	248	0.15031620375	0
16	258	0.15882020375	0.006689229756
16	294	0.176621680585	0
16	306	0.185125680585	0.000803489928
16	344	0.203690215556	0
16	367	0.21250978861	0
16	390	0.226141055911	0
16	415	0.241443788338	0
16	438	0.251911642679	0
16	463	0.261161658581	0
16	486	0.278218034742	0
16	498	0.286722034742	0.007160646072
16	525	0.295226034742	0.007964309648
16	544	0.303730034742	0.013993870264
16	577	0.312234034742	0.006474388049
16	608	0.320738034742	0.01204980616
16	633	0.329242034742	0.018810469832
16	652	0.337746034742	0.022613220104
16	673	0.346250034742	0.029171582231
16	696	0.354754034742	0.034658279046
16	721	0.363258034742	0.037299594454
16	740	0.371762034742	0.017856633963
16	765	0.380266034742	0.019187681041
16	784	0.388770034742	0.016297746039
16	822	0.400388501443	0
16	834	0.408892501443	0.007249265291
16	872	0.443645800365	0
16	895	0.456351809943	0
16	918	0.464855809943	0.006254887208
16	929	0.473359809943	0.009438038865
16	953	0.481863809943	0.001273526588
16	989	0.491823022072	0
16	1013	0.500327022072	0.003786649312
16	1024	0.508831022072	0.011820451435
16	1049	0.517335022072	0.008253999373
16	1101	0.547396382404	0
16	1124	0.560090299364	0
16	1147	0.572186530309	0
16	1186	0.636507734512	0
16	1209	0.646970724756	0
16	1228	0.655474724756	0.002083223875
16	1243	0.663978724756	0.002861851856
16	1279	0.672839241789	0
16	1290	0.681343241789	0.003553985241
16	1327	0.691267276166	0
16	1338	0.699771276166	0.00392532988
16	1376	0.713925570285	0
16	1415	0.749771848987	0
16	1438	0.762807081558	0
16	1457	0.771311081558	0.008340025059
16	1472	0.779815081558	0.005142801849
16	1496	0.788319081558	0.00020902946
16	1548	0.830993112566	0
16	1584	0.856256968176	0
16	1608	0.864807971296	0
16	1634	0.873311971296	0.007816076883
16	1649	0.881815971296	0.009120714243
16	1670	0.890319971296	0.017382432705
16	1689	0.898823971296	0.018891892039
16	1729	0.926630920731	0
16	1739	0.935134920731	0.003158966457
16	1762	0.943638920731	0.003795211045
16	1800	0.953846192005	0
16	1825	0.979337038369	0
16	1862	1.009383979766	0
16	1872	1.017887979766	0.005571254623
16	1895	1.026391979766	0.00408113243
16	1946	1.046349733606	0
16	1970	1.054884708853	0
16	1995	1.084711697137	0
16	2032	1.115195351233	0
16	2050	1.123699351233	0.007462754212
16	2069	1.132203351233	0.012062669226
16	2088	1.140707351233	0.020453860218
16	2113	1.149211351233	0.006789928406
16	2136	1.157715351233	0.002792560556
16	2176	1.177018180335	0
16	2186	1.185522180335	0.004813787315
16	2209	1.194026180335	0.007231385836
16	2236	1.202530180335	0.006077817038
16	2265	1.211034180335	0.012418790014
16	2288	1.219538180335	0.015382019261
16	2309	1.228042180335	0.021985921186
16	2336	1.236546180335	0.0203729248
16	2361	1.245050180335	0.014278820959
16	2380	1.253554180335	0.0186986601
16	2405	1.262058180335	0.020387810258
16	2428	1.270562180335	0.011959517346
16	2449	1.279066180335	0.014411391667
16	2487	1.291819591578	0
16	2510	1.304043496338	0
16	2548	1.33070157912	0
16	2572	1.344376874682	0
16	2591	1.352880874682	0.001347447268
17	8	0.022315250545	1
17	9	0.022315250545	2
17	18	0.030819250545	1
17	18	0.030819250545	0
17	18	0.030819250545	1
17	19	0.030819250545	2
17	41	0.039323250545	1
17	41	0.039323250545	0
17	41	0.039323250545	1
17	42	0.039323250545	2
17	60	0.047827250545	1
17	60	0.047827250545	0
17	79	0.053995414818	1
17	80	0.053995414818	2
17	98	0.062499414818	1
17	98	0.062499414818	0
17	98	0.062499414818	1
17	99	0.062499414818	2
17	113	0.071003414818	1
17	113	0.071003414818	0
17	113	0.071003414818	1
17	114	0.071003414818	2
17	133	0.079507414818	1
17	133	0.079507414818	0
17	152	0.089528900904	1
17	153	0.089528900904	2
17	162	0.098032900904	1
17	162	0.098032900904	0
17	162	0.098032900904	1
17	163	0.098032900904	2
17	181	0.106536900904	1
17	181	0.106536900904	0
17	197	0.107003186959	1
17	198	0.107003186959	2
17	208	0.115507186959	1
17	208	0.115507186959	0
17	208	0.115507186959	1
17	209	0.115507186959	2
17	229	0.124011186959	1
17	229	0.124011186959	0
17	248	0.15031620375	1
17	249	0.15031620375	2
17	258	0.15882020375	1
17	258	0.15882020375	0
17	258	0.15882020375	1
17	259	0.15882020375	2
17	277	0.16732420375	1
17	277	0.16732420375	0
17	294	0.176621680585	1
17	295	0.176621680585	2
17	306	0.185125680585	1
17	306	0.185125680585	0
17	306	0.185125680585	1
17	307	0.185125680585	2
17	325	0.193629680585	1
17	325	0.193629680585	0
17	344	0.203690215556	1
17	345	0.203690215556	2
17	350	0.212194215556	1
17	350	0.212194215556	0
17	367	0.21250978861	1
17	368	0.21250978861	2
17	381	0.22101378861	1
17	381	0.22101378861	0
17	390	0.226141055911	1
17	391	0.226141055911	2
17	398	0.234645055911	1
17	398	0.234645055911	0
17	415	0.241443788338	1
17	416	0.241443788338	2
17	430	0.249947788338	1
17	430	0.249947788338	0
17	438	0.251911642679	1
17	439	0.251911642679	2
17	446	0.260415642679	1
17	446	0.260415642679	0
17	463	0.261161658581	1
17	464	0.261161658581	2
17	477	0.269665658581	1
17	477	0.269665658581	0
17	486	0.278218034742	1
17	487	0.278218034742	2
17	498	0.286722034742	1
17	498	0.286722034742	0
17	498	0.286722034742	1
17	499	0.286722034742	2
17	525	0.295226034742	1
17	525	0.295226034742	0
17	525	0.295226034742	1
17	526	0.295226034742	2
17	544	0.303730034742	1
17	544	0.303730034742	0
17	544	0.303730034742	1
17	545	0.303730034742	2
17	577	0.312234034742	1
17	577	0.312234034742	0
17	577	0.312234034742	1
17	578	0.312234034742	2
17	608	0.320738034742	1
17	608	0.320738034742	0
17	608	0.320738034742	1
17	609	0.320738034742	2
17	633	0.329242034742	1
17	633	0.329242034742	0
17	633	0.329242034742	1
17	634	0.329242034742	2
17	652	0.337746034742	1
17	652	0.337746034742	0
17	652	0.337746034742	1
17	653	0.337746034742	2
17	673	0.346250034742	1
17	673	0.346250034742	0
17	673	0.346250034742	1
17	674	0.346250034742	2
17	696	0.354754034742	1
17	696	0.354754034742	0
17	696	0.354754034742	1
17	697	0.354754034742	2
17	721	0.363258034742	1
17	721	0.363258034742	0
17	721	0.363258034742	1
17	722	0.363258034742	2
17	740	0.371762034742	1
17	740	0.371762034742	0
17	740	0.371762034742	1
17	741	0.371762034742	2
17	765	0.380266034742	1
17	765	0.380266034742	0
17	765	0.380266034742	1
17	766	0.380266034742	2
17	784	0.388770034742	1
17	784	0.388770034742	0
17	784	0.388770034742	1
17	785	0.388770034742	2
17	805	0.397274034742	1
17	805	0.397274034742	0
17	822	0.400388501443	1
17	823	0.400388501443	2
17	834	0.408892501443	1
17	834	0.408892501443	0
17	834	0.408892501443	1
17	835	0.408892501443	2
17	853	0.417396501443	1
17	853	0.417396501443	0
17	872	0.443645800365	1
17	873	0.443645800365	2
17	878	0.452149800365	1
17	878	0.452149800365	0
17	895	0.456351809943	1
17	896	0.456351809943	2
17	918	0.464855809943	1
17	918	0.464855809943	0
17	918	0.464855809943	1
17	919	0.464855809943	2
17	929	0.473359809943	1
17	929	0.473359809943	0
17	929	0.473359809943	1
17	930	0.473359809943	2
17	953	0.481863809943	1
17	953	0.481863809943	0
17	953	0.481863809943	1
17	954	0.481863809943	2
17	972	0.490367809943	1
17	972	0.490367809943	0
17	989	0.491823022072	1
17	990	0.491823022072	2
17	1013	0.500327022072	1
17	1013	0.500327022072	0
17	1013	0.500327022072	1
17	1014	0.500327022072	2
17	1024	0.508831022072	1
17	1024	0.508831022072	0
17	1024	0.508831022072	1
17	1025	0.508831022072	2
17	1049	0.517335022072	1
17	1049	0.517335022072	0
17	1049	0.517335022072	1
17	1050	0.517335022072	2
17	1068	0.525839022072	1
17	1068	0.525839022072	0
17	1101	0.547396382404	1
17	1102	0.547396382404	2
17	1107	0.555900382404	1
17	1107	0.555900382404	0
17	1124	0.560090299364	1
17	1125	0.560090299364	2
17	1139	0.568594299364	1
17	1139	0.568594299364	0
17	1147	0.572186530309	1
17	1148	0.572186530309	2
17	1155	0.580690530309	1
17	1155	0.580690530309	0
17	1186	0.636507734512	1
17	1187	0.636507734512	2
17	1192	0.645011734512	1
17	1192	0.645011734512	0
17	1209	0.646970724756	1
17	1210	0.646970724756	2
17	1228	0.655474724756	1
17	1228	0.655474724756	0
17	1228	0.655474724756	1
17	1229	0.655474724756	2
17	1243	0.663978724756	1
17	1243	0.663978724756	0
17	1243	0.663978724756	1
17	1244	0.663978724756	2
17	1263	0.672482724756	1
17	1263	0.672482724756	0
17	1279	0.672839241789	1
17	1280	0.672839241789	2
17	1290	0.681343241789	1
17	1290	0.681343241789	0
17	1290	0.681343241789	1
17	1291	0.681343241789	2
17	1311	0.689847241789	1
17	1311	0.689847241789	0
17	1327	0.691267276166	1
17	1328	0.691267276166	2
17	1338	0.699771276166	1
17	1338	0.699771276166	0
17	1338	0.699771276166	1
17	1339	0.699771276166	2
17	1359	0.708275276166	1
17	1359	0.708275276166	0
17	1376	0.713925570285	1
17	1377	0.713925570285	2
17	1384	0.722429570285	1
17	1384	0.722429570285	0
17	1415	0.749771848987	1
17	1416	0.749771848987	2
17	1421	0.758275848987	1
17	1421	0.758275848987	0
17	1438	0.762807081558	1
17	1439	0.762807081558	2
17	1457	0.771311081558	1
17	1457	0.771311081558	0
17	1457	0.771311081558	1
17	1458	0.771311081558	2
17	1472	0.779815081558	1
17	1472	0.779815081558	0
17	1472	0.779815081558	1
17	1473	0.779815081558	2
17	1496	0.788319081558	1
17	1496	0.788319081558	0
17	1496	0.788319081558	1
17	1497	0.788319081558	2
17	1515	0.796823081558	1
17	1515	0.796823081558	0
17	1548	0.830993112566	1
17	1549	0.830993112566	2
17	1554	0.839497112566	1
17	1554	0.839497112566	0
17	1584	0.856256968176	1
17	1585	0.856256968176	2
17	1591	0.864760968176	1
17	1591	0.864760968176	0
17	1608	0.864807971296	1
17	1609	0.864807971296	2
17	1634	0.873311971296	1
17	1634	0.873311971296	0
17	1634	0.873311971296	1
17	1635	0.873311971296	2
17	1649	0.881815971296	1
17	1649	0.881815971296	0
17	1649	0.881815971296	1
17	1650	0.881815971296	2
17	1670	0.890319971296	1
17	1670	0.890319971296	0
17	1670	0.890319971296	1
17	1671	0.890319971296	2
17	1689	0.898823971296	1
17	1689	0.898823971296	0
17	1689	0.898823971296	1
17	1690	0.898823971296	2
17	1710	0.907327971296	1
17	1710	0.907327971296	0
17	1729	0.926630920731	1
17	1730	0.926630920731	2
17	1739	0.935134920731	1
17	1739	0.935134920731	0
17	1739	0.935134920731	1
17	1740	0.935134920731	2
17	1762	0.943638920731	1
17	1762	0.943638920731	0
17	1762	0.943638920731	1
17	1763	0.943638920731	2
17	1781	0.952142920731	1
17	1781	0.952142920731	0
17	1800	0.953846192005	1
17	1801	0.953846192005	2
17	1815	0.962350192005	1
17	1815	0.962350192005	0
17	1825	0.979337038369	1
17	1826	0.979337038369	2
17	1831	0.987841038369	1
17	1831	0.987841038369	0
17	1862	1.009383979766	1
17	1863	1.009383979766	2
17	1872	1.017887979766	1
17	1872	1.017887979766	0
17	1872	1.017887979766	1
17	1873	1.017887979766	2
17	1895	1.026391979766	1
17	1895	1.026391979766	0
17	1895	1.026391979766	1
17	1896	1.026391979766	2
17	1914	1.034895979766	1
17	1914	1.034895979766	0
17	1946	1.046349733606	1
17	1947	1.046349733606	2
17	1953	1.054853733606	1
17	1953	1.054853733606	0
17	1970	1.054884708853	1
17	1971	1.054884708853	2
17	1984	1.063388708853	1
17	1984	1.063388708853	0
17	1995	1.084711697137	1
17	1996	1.084711697137	2
17	2001	1.093215697137	1
17	2001	1.093215697137	0
17	2032	1.115195351233	1
17	2033	1.115195351233	2
17	2050	1.123699351233	1
17	2050	1.123699351233	0
17	2050	1.123699351233	1
17	2051	1.123699351233	2
17	2069	1.132203351233	1
17	2069	1.132203351233	0
17	2069	1.132203351233	1
17	2070	1.132203351233	2
17	2088	1.140707351233	1
17	2088	1.140707351233	0
17	2088	1.140707351233	1
17	2089	1.140707351233	2
17	2113	1.149211351233	1
17	2113	1.149211351233	0
17	2113	1.149211351233	1
17	2114	1.149211351233	2
17	2136	1.157715351233	1
17	2136	1.157715351233	0
17	2136	1.157715351233	1
17	2137	1.157715351233	2
17	2157	1.166219351233	1
17	2157	1.166219351233	0
17	2176	1.177018180335	1
17	2177	1.177018180335	2
17	2186	1.185522180335	1
17	2186	1.185522180335	0
17	2186	1.185522180335	1
17	2187	1.185522180335	2
17	2209	1.194026180335	1
17	2209	1.194026180335	0
17	2209	1.194026180335	1
[...]
26	1347	0.699771948486	1028
26	1390	0.722430242605	1028
26	1427	0.758276521307	1028
26	1481	0.779815753878	1028
26	1521	0.796823753878	1028
26	1560	0.839497784886	1028
26	1597	0.864761640496	1028
26	1658	0.881816643616	1028
26	1698	0.898824643616	1028
26	1748	0.935135593051	1028
26	1787	0.952143593051	1028
26	1837	0.987841710689	1028
26	1881	1.017888652086	1028
26	1920	1.034896652086	1028
26	1959	1.054854405926	1028
26	2007	1.093216369457	1028
26	2059	1.123700023553	1028
26	2097	1.140708023553	1028
26	2145	1.157716023553	1028
26	2195	1.185522852655	1028
26	2245	1.202530852655	1028
26	2297	1.219538852655	1028
26	2345	1.236546852655	1028
26	2389	1.253554852655	1028
26	2437	1.270562852655	1028
26	2474	1.287570852655	1028
26	2524	1.312548168658	1028
26	2561	1.33920625144	1028
27	27	0.030819922865	0
27	66	0.047827922865	0
27	122	0.071004087138	0
27	171	0.098033573224	0
27	217	0.115507859279	0
27	267	0.15882087607	0
27	315	0.185126352905	0
27	356	0.212194887876	0
27	404	0.234645728231	0
27	452	0.260416314999	0
27	507	0.286722707062	0
27	553	0.303730707062	0
27	617	0.320738707062	0
27	661	0.337746707062	0
27	705	0.354754707062	0
27	749	0.371762707062	0
27	793	0.388770707062	0
27	843	0.408893173763	0
27	884	0.452150472685	0
27	938	0.473360482263	0
27	978	0.490368482263	0
27	1033	0.508831694392	0
27	1074	0.525839694392	0
27	1113	0.555901054724	0
27	1161	0.580691202629	0
27	1198	0.645012406832	0
27	1252	0.663979397076	0
27	1299	0.681343914109	0
27	1347	0.699771948486	0
27	1390	0.722430242605	0
27	1427	0.758276521307	0
27	1481	0.779815753878	0
27	1521	0.796823753878	0
27	1560	0.839497784886	0
27	1597	0.864761640496	0
27	1658	0.881816643616	0
27	1698	0.898824643616	0
27	1748	0.935135593051	0
27	1787	0.952143593051	0
27	1837	0.987841710689	0
27	1881	1.017888652086	0
27	1920	1.034896652086	0
27	1959	1.054854405926	0
27	2007	1.093216369457	0
27	2059	1.123700023553	0
27	2097	1.140708023553	0
27	2145	1.157716023553	0
27	2195	1.185522852655	0
27	2245	1.202530852655	0
27	2297	1.219538852655	0
27	2345	1.236546852655	0
27	2389	1.253554852655	0
27	2437	1.270562852655	0
27	2474	1.287570852655	0
27	2524	1.312548168658	0
27	2561	1.33920625144	0
28	27	0.030819922865	1
28	28	0.030819922865	2
28	47	0.039323922865	1
28	47	0.039323922865	0
28	66	0.047827922865	1
28	67	0.047827922865	2
28	85	0.056331922865	1
28	85	0.056331922865	0
28	122	0.071004087138	1
28	123	0.071004087138	2
28	137	0.079508087138	1
28	137	0.079508087138	0
28	171	0.098033573224	1
28	172	0.098033573224	2
28	185	0.106537573224	1
28	185	0.106537573224	0
28	217	0.115507859279	1
28	218	0.115507859279	2
28	233	0.124011859279	1
28	233	0.124011859279	0
28	267	0.15882087607	1
28	268	0.15882087607	2
28	281	0.16732487607	1
28	281	0.16732487607	0
28	315	0.185126352905	1
28	316	0.185126352905	2
28	329	0.193630352905	1
28	329	0.193630352905	0
28	356	0.212194887876	1
28	357	0.212194887876	2
28	373	0.220698887876	1
28	373	0.220698887876	0
28	404	0.234645728231	1
28	405	0.234645728231	2
28	421	0.243149728231	1
28	421	0.243149728231	0
28	452	0.260416314999	1
28	453	0.260416314999	2
28	469	0.268920314999	1
28	469	0.268920314999	0
28	507	0.286722707062	1
28	508	0.286722707062	2
28	531	0.295226707062	1
28	531	0.295226707062	0
28	553	0.303730707062	1
28	554	0.303730707062	2
28	583	0.312234707062	1
28	583	0.312234707062	0
28	617	0.320738707062	1
28	618	0.320738707062	2
28	639	0.329242707062	1
28	639	0.329242707062	0
28	661	0.337746707062	1
28	662	0.337746707062	2
28	679	0.346250707062	1
28	679	0.346250707062	0
28	705	0.354754707062	1
28	706	0.354754707062	2
28	727	0.363258707062	1
28	727	0.363258707062	0
28	749	0.371762707062	1
28	750	0.371762707062	2
28	771	0.380266707062	1
28	771	0.380266707062	0
28	793	0.388770707062	1
28	794	0.388770707062	2
28	809	0.397274707062	1
28	809	0.397274707062	0
28	843	0.408893173763	1
28	844	0.408893173763	2
28	857	0.417397173763	1
28	857	0.417397173763	0
28	884	0.452150472685	1
28	885	0.452150472685	2
28	905	0.460654472685	1
28	905	0.460654472685	0
28	938	0.473360482263	1
28	939	0.473360482263	2
28	959	0.481864482263	1
28	959	0.481864482263	0
28	978	0.490368482263	1
28	979	0.490368482263	2
28	1005	0.498872482263	1
28	1005	0.498872482263	0
28	1033	0.508831694392	1
28	1034	0.508831694392	2
28	1055	0.517335694392	1
28	1055	0.517335694392	0
28	1074	0.525839694392	1
28	1075	0.525839694392	2
28	1084	0.534343694392	1
28	1084	0.534343694392	0
28	1113	0.555901054724	1
28	1114	0.555901054724	2
28	1130	0.564405054724	1
28	1130	0.564405054724	0
28	1161	0.580691202629	1
28	1162	0.580691202629	2
28	1169	0.589195202629	1
28	1169	0.589195202629	0
28	1198	0.645012406832	1
28	1199	0.645012406832	2
28	1219	0.653516406832	1
28	1219	0.653516406832	0
28	1252	0.663979397076	1
28	1253	0.663979397076	2
28	1267	0.672483397076	1
28	1267	0.672483397076	0
28	1299	0.681343914109	1
28	1300	0.681343914109	2
28	1315	0.689847914109	1
28	1315	0.689847914109	0
28	1347	0.699771948486	1
28	1348	0.699771948486	2
28	1363	0.708275948486	1
28	1363	0.708275948486	0
28	1390	0.722430242605	1
28	1391	0.722430242605	2
28	1398	0.730934242605	1
28	1398	0.730934242605	0
28	1427	0.758276521307	1
28	1428	0.758276521307	2
28	1448	0.766780521307	1
28	1448	0.766780521307	0
28	1481	0.779815753878	1
28	1482	0.779815753878	2
28	1502	0.788319753878	1
28	1502	0.788319753878	0
28	1521	0.796823753878	1
28	1522	0.796823753878	2
28	1531	0.805327753878	1
28	1531	0.805327753878	0
28	1560	0.839497784886	1
28	1561	0.839497784886	2
28	1568	0.848001784886	1
28	1568	0.848001784886	0
28	1597	0.864761640496	1
28	1598	0.864761640496	2
28	1626	0.873265640496	1
28	1626	0.873265640496	0
28	1658	0.881816643616	1
28	1659	0.881816643616	2
28	1676	0.890320643616	1
28	1676	0.890320643616	0
28	1698	0.898824643616	1
28	1699	0.898824643616	2
28	1714	0.907328643616	1
28	1714	0.907328643616	0
28	1748	0.935135593051	1
28	1749	0.935135593051	2
28	1768	0.943639593051	1
28	1768	0.943639593051	0
28	1787	0.952143593051	1
28	1788	0.952143593051	2
28	1806	0.960647593051	1
28	1806	0.960647593051	0
28	1837	0.987841710689	1
28	1838	0.987841710689	2
28	1845	0.996345710689	1
28	1845	0.996345710689	0
28	1881	1.017888652086	1
28	1882	1.017888652086	2
28	1901	1.026392652086	1
28	1901	1.026392652086	0
28	1920	1.034896652086	1
28	1921	1.034896652086	2
28	1930	1.043400652086	1
28	1930	1.043400652086	0
28	1959	1.054854405926	1
28	1960	1.054854405926	2
28	1976	1.063358405926	1
28	1976	1.063358405926	0
28	2007	1.093216369457	1
28	2008	1.093216369457	2
28	2015	1.101720369457	1
28	2015	1.101720369457	0
28	2059	1.123700023553	1
28	2060	1.123700023553	2
28	2075	1.132204023553	1
28	2075	1.132204023553	0
28	2097	1.140708023553	1
28	2098	1.140708023553	2
28	2119	1.149212023553	1
28	2119	1.149212023553	0
28	2145	1.157716023553	1
28	2146	1.157716023553	2
28	2161	1.166220023553	1
28	2161	1.166220023553	0
28	2195	1.185522852655	1
28	2196	1.185522852655	2
28	2215	1.194026852655	1
28	2215	1.194026852655	0
28	2245	1.202530852655	1
28	2246	1.202530852655	2
28	2271	1.211034852655	1
28	2271	1.211034852655	0
28	2297	1.219538852655	1
28	2298	1.219538852655	2
28	2315	1.228042852655	1
28	2315	1.228042852655	0
28	2345	1.236546852655	1
28	2346	1.236546852655	2
28	2367	1.245050852655	1
28	2367	1.245050852655	0
28	2389	1.253554852655	1
28	2390	1.253554852655	2
28	2411	1.262058852655	1
28	2411	1.262058852655	0
28	2437	1.270562852655	1
28	2438	1.270562852655	2
28	2455	1.279066852655	1
28	2455	1.279066852655	0
28	2474	1.287570852655	1
28	2475	1.287570852655	2
28	2493	1.296074852655	1
28	2493	1.296074852655	0
28	2524	1.312548168658	1
28	2525	1.312548168658	2
28	2532	1.321052168658	1
28	2532	1.321052168658	0
28	2561	1.33920625144	1
28	2562	1.33920625144	2
28	2578	1.34771025144	1
28	2578	1.34771025144	0
29	27	0.030819922865	1051
29	66	0.047827922865	1051
29	122	0.071004087138	1051
29	171	0.098033573224	1051
29	217	0.115507859279	1051
29	267	0.15882087607	1051
29	315	0.185126352905	1051
29	356	0.212194887876	1051
29	404	0.234645728231	1051
29	452	0.260416314999	1051
29	507	0.286722707062	1051
29	553	0.303730707062	1051
29	617	0.320738707062	1051
29	661	0.337746707062	1051
29	705	0.354754707062	1051
29	749	0.371762707062	1051
29	793	0.388770707062	1051
29	843	0.408893173763	1051
29	884	0.452150472685	1051
29	938	0.473360482263	1051
29	978	0.490368482263	1051
29	1033	0.508831694392	1051
29	1074	0.525839694392	1051
29	1113	0.555901054724	1051
29	1161	0.580691202629	1051
29	1198	0.645012406832	1051
29	1252	0.663979397076	1051
29	1299	0.681343914109	1051
29	1347	0.699771948486	1051
29	1390	0.722430242605	1051
29	1427	0.758276521307	1051
29	1481	0.779815753878	1051
29	1521	0.796823753878	1051
29	1560	0.839497784886	1051
29	1597	0.864761640496	1051
29	1658	0.881816643616	1051
29	1698	0.898824643616	1051
29	1748	0.935135593051	1051
29	1787	0.952143593051	1051
29	1837	0.987841710689	1051
29	1881	1.017888652086	1051
29	1920	1.034896652086	1051
29	1959	1.054854405926	1051
29	2007	1.093216369457	1051
29	2059	1.123700023553	1051
29	2097	1.140708023553	1051
29	2145	1.157716023553	1051
29	2195	1.185522852655	1051
29	2245	1.202530852655	1051
29	2297	1.219538852655	1051
29	2345	1.236546852655	1051
29	2389	1.253554852655	1051
29	2437	1.270562852655	1051
29	2474	1.287570852655	1051
29	2524	1.312548168658	1051
29	2561	1.33920625144	1051
30	45	0.039323784508	1051
30	62	0.047827784508	1051
30	88	0.056332524206	1051
30	135	0.079507948781	1051
30	183	0.106537434867	1051
30	231	0.124011720922	1051
30	279	0.167324737713	1051
30	327	0.193630214548	1051
30	376	0.220699489217	1051
30	424	0.243150329572	1051
30	472	0.26892091634	1051
30	529	0.295226568705	1051
30	548	0.303730568705	1051
30	581	0.312234568705	1051
30	612	0.320738568705	1051
30	637	0.329242568705	1051
30	656	0.337746568705	1051
30	677	0.346250568705	1051
30	700	0.354754568705	1051
30	725	0.363258568705	1051
30	744	0.371762568705	1051
30	769	0.380266568705	1051
30	788	0.388770568705	1051
30	807	0.397274568705	1051
30	855	0.417397035406	1051
30	908	0.460655074026	1051
30	957	0.481864343906	1051
30	974	0.490368343906	1051
30	1008	0.498873083604	1051
30	1053	0.517335556035	1051
30	1070	0.525839556035	1051
30	1133	0.564405656065	1051
30	1222	0.653517008173	1051
30	1265	0.672483258719	1051
30	1313	0.689847775752	1051
30	1361	0.708275810129	1051
30	1451	0.766781122648	1051
30	1500	0.788319615521	1051
30	1517	0.796823615521	1051
30	1629	0.873266241837	1051
30	1674	0.890320505259	1051
30	1693	0.898824505259	1051
30	1712	0.907328505259	1051
30	1766	0.943639454694	1051
30	1783	0.952143454694	1051
30	1809	0.960648194392	1051
30	1899	1.026392513729	1051
30	1916	1.034896513729	1051
30	1979	1.063359007267	1051
30	2073	1.132203885196	1051
30	2092	1.140707885196	1051
30	2117	1.149211885196	1051
30	2140	1.157715885196	1051
30	2159	1.166219885196	1051
30	2213	1.194026714298	1051
30	2240	1.202530714298	1051
30	2269	1.211034714298	1051
30	2292	1.219538714298	1051
30	2313	1.228042714298	1051
30	2340	1.236546714298	1051
30	2365	1.245050714298	1051
30	2384	1.253554714298	1051
30	2409	1.262058714298	1051
30	2432	1.270562714298	1051
30	2453	1.279066714298	1051
30	2470	1.287570714298	1051
30	2496	1.296075453996	1051
30	2581	1.347710852781	1051
31	53	0.039324524206	1051
31	89	0.056332524206	1051
31	141	0.079508688479	1051
31	189	0.106538174565	1051
31	237	0.12401246062	1051
31	285	0.167325477411	1051
31	333	0.193630954246	1051
31	377	0.220699489217	1051
31	425	0.243150329572	1051
31	473	0.26892091634	1051
31	537	0.295227308403	1051
31	589	0.312235308403	1051
31	645	0.329243308403	1051
31	685	0.346251308403	1051
31	733	0.363259308403	1051
31	777	0.380267308403	1051
31	813	0.397275308403	1051
31	861	0.417397775104	1051
31	909	0.460655074026	1051
31	965	0.481865083604	1051
31	1009	0.498873083604	1051
31	1061	0.517336295733	1051
31	1088	0.534344295733	1051
31	1134	0.564405656065	1051
31	1173	0.58919580397	1051
31	1223	0.653517008173	1051
31	1271	0.672483998417	1051
31	1319	0.68984851545	1051
31	1367	0.708276549827	1051
31	1402	0.730934843946	1051
31	1452	0.766781122648	1051
31	1508	0.788320355219	1051
31	1535	0.805328355219	1051
31	1572	0.848002386227	1051
31	1630	0.873266241837	1051
31	1682	0.890321244957	1051
31	1718	0.907329244957	1051
31	1774	0.943640194392	1051
31	1810	0.960648194392	1051
31	1849	0.99634631203	1051
31	1907	1.026393253427	1051
31	1934	1.043401253427	1051
31	1980	1.063359007267	1051
31	2019	1.101720970798	1051
31	2081	1.132204624894	1051
31	2125	1.149212624894	1051
31	2165	1.166220624894	1051
31	2221	1.194027453996	1051
31	2277	1.211035453996	1051
31	2321	1.228043453996	1051
31	2373	1.245051453996	1051
31	2417	1.262059453996	1051
31	2461	1.279067453996	1051
31	2497	1.296075453996	1051
31	2536	1.321052769999	1051
31	2582	1.347710852781	1051
32	53	0.039324524206	1051
32	89	0.056332524206	1051
32	141	0.079508688479	1051
32	189	0.106538174565	1051
32	237	0.12401246062	1051
32	285	0.167325477411	1051
32	333	0.193630954246	1051
32	377	0.220699489217	1051
32	425	0.243150329572	1051
32	473	0.26892091634	1051
32	537	0.295227308403	1051
32	589	0.312235308403	1051
32	645	0.329243308403	1051
32	685	0.346251308403	1051
32	733	0.363259308403	1051
32	777	0.380267308403	1051
32	813	0.397275308403	1051
32	861	0.417397775104	1051
32	909	0.460655074026	1051
32	965	0.481865083604	1051
32	1009	0.498873083604	1051
32	1061	0.517336295733	1051
32	1134	0.564405656065	1051
32	1223	0.653517008173	1051
32	1271	0.672483998417	1051
32	1319	0.68984851545	1051
32	1367	0.708276549827	1051
32	1452	0.766781122648	1051
32	1508	0.788320355219	1051
32	1630	0.873266241837	1051
32	1682	0.890321244957	1051
32	1718	0.907329244957	1051
32	1774	0.943640194392	1051
32	1810	0.960648194392	1051
32	1907	1.026393253427	1051
32	1980	1.063359007267	1051
32	2081	1.132204624894	1051
32	2125	1.149212624894	1051
32	2165	1.166220624894	1051
32	2221	1.194027453996	1051
32	2277	1.211035453996	1051
32	2321	1.228043453996	1051
32	2373	1.245051453996	1051
32	2417	1.262059453996	1051
32	2461	1.279067453996	1051
32	2497	1.296075453996	1051
32	2582	1.347710852781	1051
33	58	0.039324595185	1051
33	92	0.056332595185	1051
33	145	0.079508759458	1051
33	193	0.106538245544	1051
33	241	0.124012531599	1051
33	289	0.16732554839	1051
33	337	0.193631025225	1051
33	380	0.220699560196	1051
33	428	0.243150400551	1051
33	476	0.268920987319	1051
33	542	0.295227379382	1051
33	594	0.312235379382	1051
33	650	0.329243379382	1051
33	690	0.346251379382	1051
33	738	0.363259379382	1051
33	782	0.380267379382	1051
33	817	0.397275379382	1051
33	865	0.417397846083	1051
33	912	0.460655145005	1051
33	970	0.481865154583	1051
33	1012	0.498873154583	1051
33	1066	0.517336366712	1051
33	1092	0.534344366712	1051
33	1137	0.564405727044	1051
33	1177	0.589195874949	1051
33	1226	0.653517079152	1051
33	1275	0.672484069396	1051
33	1323	0.689848586429	1051
33	1371	0.708276620806	1051
33	1406	0.730934914925	1051
33	1455	0.766781193627	1051
33	1513	0.788320426198	1051
33	1539	0.805328426198	1051
33	1576	0.848002457206	1051
33	1633	0.873266312816	1051
33	1687	0.890321315936	1051
33	1722	0.907329315936	1051
33	1779	0.943640265371	1051
33	1813	0.960648265371	1051
33	1853	0.996346383009	1051
33	1912	1.026393324406	1051
33	1938	1.043401324406	1051
33	1983	1.063359078246	1051
33	2023	1.101721041777	1051
33	2086	1.132204695873	1051
33	2130	1.149212695873	1051
33	2169	1.166220695873	1051
33	2226	1.194027524975	1051
33	2282	1.211035524975	1051
33	2326	1.228043524975	1051
33	2378	1.245051524975	1051
33	2422	1.262059524975	1051
33	2466	1.279067524975	1051
33	2500	1.296075524975	1051
33	2540	1.321052840978	1051
33	2585	1.34771092376	1051
34	58	0.039324595185	1051
34	92	0.056332595185	1051
34	145	0.079508759458	1051
34	193	0.106538245544	1051
34	241	0.124012531599	1051
34	289	0.16732554839	1051
34	337	0.193631025225	1051
34	380	0.220699560196	1051
34	428	0.243150400551	1051
34	476	0.268920987319	1051
34	542	0.295227379382	1051
34	594	0.312235379382	1051
34	650	0.329243379382	1051
34	690	0.346251379382	1051
34	738	0.363259379382	1051
34	782	0.380267379382	1051
34	817	0.397275379382	1051
34	865	0.417397846083	1051
34	912	0.460655145005	1051
34	970	0.481865154583	1051
34	1012	0.498873154583	1051
34	1066	0.517336366712	1051
34	1137	0.564405727044	1051
34	1226	0.653517079152	1051
34	1275	0.672484069396	1051
34	1323	0.689848586429	1051
34	1371	0.708276620806	1051
34	1455	0.766781193627	1051
34	1513	0.788320426198	1051
34	1633	0.873266312816	1051
34	1687	0.890321315936	1051
34	1722	0.907329315936	1051
34	1779	0.943640265371	1051
34	1813	0.960648265371	1051
34	1912	1.026393324406	1051
34	1983	1.063359078246	1051
34	2086	1.132204695873	1051
34	2130	1.149212695873	1051
34	2169	1.166220695873	1051
34	2226	1.194027524975	1051
34	2282	1.211035524975	1051
34	2326	1.228043524975	1051
34	2378	1.245051524975	1051
34	2422	1.262059524975	1051
34	2466	1.279067524975	1051
34	2500	1.296075524975	1051
34	2585	1.34771092376	1051
35	1088	0.534344295733	1051
35	1173	0.58919580397	1051
35	1402	0.730934843946	1051
35	1535	0.805328355219	1051
35	1572	0.848002386227	1051
35	1849	0.99634631203	1051
35	1934	1.043401253427	1051
35	2019	1.101720970798	1051
35	2536	1.321052769999	1051
36	1091	0.534344366712	1051
36	1176	0.589195874949	1051
36	1405	0.730934914925	1051
36	1538	0.805328426198	1051
36	1575	0.848002457206	1051
36	1852	0.996346383009	1051
36	1937	1.043401324406	1051
36	2022	1.101721041777	1051
36	2539	1.321052840978	1051
37	1091	0.534344366712	1051
37	1176	0.589195874949	1051
37	1405	0.730934914925	1051
37	1538	0.805328426198	1051
37	1575	0.848002457206	1051
37	1852	0.996346383009	1051
37	1937	1.043401324406	1051
37	2022	1.101721041777	1051
37	2539	1.321052840978	1051
38	1092	0.534344366712	1028
38	1177	0.589195874949	1028
38	1406	0.730934914925	1028
38	1539	0.805328426198	1028
38	1576	0.848002457206	1028
38	1853	0.996346383009	1028
38	1938	1.043401324406	1028
38	2023	1.101721041777	1028
38	2540	1.321052840978	1028
39	1094	0.534344366712	1008
39	1179	0.589195874949	1008
39	1408	0.730934914925	1008
39	1541	0.805328426198	1008
39	1578	0.848002457206	1008
39	1855	0.996346383009	1008
39	1940	1.043401324406	1008
39	2025	1.101721041777	1008
39	2542	1.321052840978	1008
40	1094	0.534344366712	1
40	1179	0.589195874949	2
40	1408	0.730934914925	3
40	1541	0.805328426198	4
40	1578	0.848002457206	5
40	1855	0.996346383009	6
40	1940	1.043401324406	7
40	2025	1.101721041777	8
40	2542	1.321052840978	9
41	1095	0.534344366712	1000
41	1180	0.589195874949	1000
41	1409	0.730934914925	1000
41	1542	0.805328426198	1000
41	1579	0.848002457206	1000
41	1856	0.996346383009	1000
41	1941	1.043401324406	1000
41	2026	1.101721041777	1000
41	2543	1.321052840978	1000
42	1095	0.1	0
42	1095	0.2	0
42	1095	0.3	0
42	1095	0.4	0
42	1095	0.5	0
42	1409	0.6	160000
42	1409	0.7	0
42	1542	0.8	80000
42	1856	0.9	160000
42	1941	1	80000
42	2026	1.1	80000
42	2543	1.2	80000
42	2543	1.3	0
43	1095	0.534344366712	0.025263344013
43	1180	0.589195874949	0.01700934464
43	1409	0.730934914925	0.01700934464
43	1542	0.805328426198	0.0172183741
43	1579	0.848002457206	0.01700934464
43	1856	0.996346383009	0.01700934464
43	1941	1.043401324406	0.02109047707
43	2026	1.101721041777	0.01700934464
43	2543	1.321052840978	0.01700934464
44	1095	0.534344366712	44
44	1180	0.589195874949	47
44	1409	0.730934914925	56
44	1542	0.805328426198	61
44	1579	0.848002457206	62
44	1856	0.996346383009	73
44	1941	1.043401324406	76
44	2026	1.101721041777	79
44	2543	1.321052840978	100

