version 2
run Wireless10C-0-20210902-11:23:09-7540
attr configname Wireless10C
attr datetime 20210902-11:23:09
attr experiment Wireless10C
attr inifile omnetpp.ini
attr iterationvars ""
attr iterationvarsf ""
attr measurement ""
attr network WirelessB
attr processid 7540
attr repetition 0
attr replication #0
attr resultdir results
attr runnumber 0
attr seedset 0
param *.configurator.addStaticRoutes false
param *.host*.typename "\"ManetRouter\""
param **.routing.typename "\"Gpsr\""
param *.hostB.wlan[0].radio.displayCommunicationRange true
param *.visualizer.dataLinkVisualizer.packetFilter "\"Hello\""
param *.hostR*.mobility.typename "\"LinearMobility\""
param *.hostR*.mobility.speed 12mps
param *.hostR*.mobility.initialMovementHeading 270deg
param *.host*.wlan[0].mac.queue.packetCapacity 10
param *.visualizer.mobilityVisualizer.displayVelocities true
param *.visualizer.mobilityVisualizer.displayMovementTrails true
param *.host*.wlan[0].radio.energyConsumer.typename "\"StateBasedEpEnergyConsumer\""
param *.host*.wlan[0].radio.energyConsumer.offPowerConsumption 0mW
param *.host*.wlan[0].radio.energyConsumer.sleepPowerConsumption 1mW
param *.host*.wlan[0].radio.energyConsumer.switchingPowerConsumption 1mW
param *.host*.wlan[0].radio.energyConsumer.receiverIdlePowerConsumption 2mW
param *.host*.wlan[0].radio.energyConsumer.receiverBusyPowerConsumption 5mW
param *.host*.wlan[0].radio.energyConsumer.receiverReceivingPowerConsumption 10mW
param *.host*.wlan[0].radio.energyConsumer.transmitterIdlePowerConsumption 2mW
param *.host*.wlan[0].radio.energyConsumer.transmitterTransmittingPowerConsumption 100mW
param *.host*.energyStorage.typename "\"IdealEpEnergyStorage\""
param *.host*.wlan[0].radio.displayInterferenceRange false
param *.hostR1.wlan[0].radio.displayCommunicationRange false
param *.visualizer.mediumVisualizer.displaySignals false
param *.host*.wlan[0].mac.useAck true
param *.host*.wlan[0].typename "\"WirelessInterface\""
param *.host*.wlan[0].radio.typename "\"UnitDiskRadio\""
param *.host*.wlan[0].mac.typename "\"CsmaCaMac\""
param *.host*.wlan[0].mac.ackTimeout 300us
param *.host*.wlan[0].radio.receiver.ignoreInterference false
param *.host*.wlan[0].radio.transmitter.interferenceRange 500m
param *.hostA.wlan[0].radio.displayInterferenceRange true
param *.visualizer.dataLinkVisualizer.packetFilter "\"\""
param *.host*.forwarding true
param *.configurator.config "xml(\"<config><interface hosts='**' address='10.0.0.x' netmask='255.255.255.0'/><autoroute metric='errorRate'/></config>\")"
param *.configurator.optimizeRoutes false
param *.host*.ipv4.routingTable.netmaskRoutes "\"\""
param *.visualizer.physicalLinkVisualizer.displayLinks true
param *.visualizer.dataLinkVisualizer.displayLinks true
param *.visualizer.networkRouteVisualizer.displayRoutes true
param *.visualizer.*LinkVisualizer.lineShift 0
param *.visualizer.networkRouteVisualizer.lineShift 0
param *.visualizer.networkRouteVisualizer.packetFilter "\"UDPData*\""
param *.host*.wlan[0].radio.transmitter.communicationRange 250m
param *.hostR1.wlan[0].radio.displayCommunicationRange true
param *.hostA.wlan[0].radio.displayCommunicationRange true
param *.visualizer.sceneVisualizer.descriptionFigure "\"title\""
param *.visualizer.mediumVisualizer.displaySignals true
param *.visualizer.physicalLinkVisualizer.displayLinks true
param *.visualizer.physicalLinkVisualizer.packetFilter "\"UDPData*\""
param *.host*.ipv4.arp.typename "\"GlobalArp\""
param *.hostA.numApps 1
param *.hostA.app[0].typename "\"UdpBasicApp\""
param *.hostA.app[0].destAddresses "\"hostB\""
param *.hostA.app[0].destPort 5000
param *.hostA.app[0].messageLength 1000B
param *.hostA.app[0].sendInterval exponential(12ms)
param *.hostA.app[0].packetName "\"UDPData\""
param *.hostB.numApps 1
param *.hostB.app[0].typename "\"UdpSink\""
param *.hostB.app[0].localPort 5000
param *.host*.wlan[0].typename "\"AckingWirelessInterface\""
param *.host*.wlan[0].mac.useAck false
param *.host*.wlan[0].mac.fullDuplex false
param *.host*.wlan[0].radio.transmitter.communicationRange 500m
param *.host*.wlan[0].radio.receiver.ignoreInterference true
param *.host*.wlan[0].mac.headerLength 23B
param *.host*.**.bitrate 1Mbps

vector 0 WirelessB.hostA.energyStorage powerConsumption:vector ETV
attr interpolationmode sample-hold
attr source powerConsumptionChanged
attr title "Power consumption, vector"
vector 1 WirelessB.hostB.energyStorage powerConsumption:vector ETV
attr interpolationmode sample-hold
attr source powerConsumptionChanged
attr title "Power consumption, vector"
vector 2 WirelessB.hostR1.energyStorage powerConsumption:vector ETV
attr interpolationmode sample-hold
attr source powerConsumptionChanged
attr title "Power consumption, vector"
vector 3 WirelessB.hostR2.energyStorage powerConsumption:vector ETV
attr interpolationmode sample-hold
attr source powerConsumptionChanged
attr title "Power consumption, vector"
vector 4 WirelessB.hostR3.energyStorage powerConsumption:vector ETV
attr interpolationmode sample-hold
attr source powerConsumptionChanged
attr title "Power consumption, vector"
vector 5 WirelessB.hostA.wlan[0].radio radioMode:vector ETV
attr interpolationmode sample-hold
attr source radioModeChanged
attr title "Radio mode, vector"
vector 6 WirelessB.hostA.wlan[0].radio.energyConsumer powerConsumption:vector ETV
attr interpolationmode sample-hold
attr source powerConsumptionChanged
attr title "Power consumption, vector"
vector 7 WirelessB.hostB.wlan[0].radio radioMode:vector ETV
attr interpolationmode sample-hold
attr source radioModeChanged
attr title "Radio mode, vector"
vector 8 WirelessB.hostB.wlan[0].radio.energyConsumer powerConsumption:vector ETV
attr interpolationmode sample-hold
attr source powerConsumptionChanged
attr title "Power consumption, vector"
vector 9 WirelessB.hostR1.wlan[0].radio radioMode:vector ETV
attr interpolationmode sample-hold
attr source radioModeChanged
attr title "Radio mode, vector"
vector 10 WirelessB.hostR1.wlan[0].radio.energyConsumer powerConsumption:vector ETV
attr interpolationmode sample-hold
attr source powerConsumptionChanged
attr title "Power consumption, vector"
vector 11 WirelessB.hostR2.wlan[0].radio radioMode:vector ETV
attr interpolationmode sample-hold
attr source radioModeChanged
attr title "Radio mode, vector"
vector 12 WirelessB.hostR2.wlan[0].radio.energyConsumer powerConsumption:vector ETV
attr interpolationmode sample-hold
attr source powerConsumptionChanged
attr title "Power consumption, vector"
vector 13 WirelessB.hostR3.wlan[0].radio radioMode:vector ETV
attr interpolationmode sample-hold
attr source radioModeChanged
attr title "Radio mode, vector"
vector 14 WirelessB.hostR3.wlan[0].radio.energyConsumer powerConsumption:vector ETV
attr interpolationmode sample-hold
attr source powerConsumptionChanged
attr title "Power consumption, vector"
vector 15 WirelessB.hostA.wlan[0].radio receptionState:vector ETV
attr interpolationmode sample-hold
attr source receptionStateChanged
attr title "Radio reception state, vector"
vector 16 WirelessB.hostB.wlan[0].radio receptionState:vector ETV
attr interpolationmode sample-hold
attr source receptionStateChanged
attr title "Radio reception state, vector"
vector 17 WirelessB.hostR1.wlan[0].radio receptionState:vector ETV
attr interpolationmode sample-hold
attr source receptionStateChanged
attr title "Radio reception state, vector"
vector 18 WirelessB.hostR2.wlan[0].radio receptionState:vector ETV
attr interpolationmode sample-hold
attr source receptionStateChanged
attr title "Radio reception state, vector"
vector 19 WirelessB.hostR3.wlan[0].radio receptionState:vector ETV
attr interpolationmode sample-hold
attr source receptionStateChanged
attr title "Radio reception state, vector"
vector 20 WirelessB.hostA.app[0] packetSent:vector(packetBytes) ETV
attr interpolationmode none
attr source packetSent
attr title "packets sent, vector(packetBytes)"
vector 21 WirelessB.hostA.udp packetSent:vector(packetBytes) ETV
attr interpolationmode none
attr source packetSent
attr title "packets sent, vector(packetBytes)"
vector 22 WirelessB.hostB.wlan[0].mac.queue packetPushed:vector(packetBytes) ETV
attr interpolationmode none
attr title "packet pushed, vector(packetBytes)"
vector 23 WirelessB.hostB.wlan[0].mac.queue queueLength:vector ETV
attr interpolationmode sample-hold
attr source "count(packetPushed) - count(packetPopped) - count(packetRemoved) - count(packetDropped)"
attr title "queue length, vector"
vector 24 WirelessB.hostB.wlan[0].mac.queue packetPopped:vector(packetBytes) ETV
attr interpolationmode none
attr title "packet popped, vector(packetBytes)"
vector 25 WirelessB.hostB.wlan[0].mac.queue queueingTime:vector ETV
attr interpolationmode none
attr source queueingTime(packetPopped)
attr title "queueing times, vector"
attr unit s
vector 26 WirelessB.hostB.energyStorage residualEnergyCapacity:vector ETV
attr interpolationmode linear
attr source residualEnergyCapacityChanged
attr title "Residual energy capacity, vector"
vector 27 WirelessB.hostB.wlan[0].radio transmissionState:vector ETV
attr interpolationmode sample-hold
attr source transmissionStateChanged
attr title "Radio transmission state, vector"
vector 28 WirelessB.hostR3.energyStorage residualEnergyCapacity:vector ETV
attr interpolationmode linear
attr source residualEnergyCapacityChanged
attr title "Residual energy capacity, vector"
vector 29 WirelessB.hostR1.energyStorage residualEnergyCapacity:vector ETV
attr interpolationmode linear
attr source residualEnergyCapacityChanged
attr title "Residual energy capacity, vector"
vector 30 WirelessB.hostR2.energyStorage residualEnergyCapacity:vector ETV
attr interpolationmode linear
attr source residualEnergyCapacityChanged
attr title "Residual energy capacity, vector"
vector 31 WirelessB.hostA.energyStorage residualEnergyCapacity:vector ETV
attr interpolationmode linear
attr source residualEnergyCapacityChanged
attr title "Residual energy capacity, vector"
vector 32 WirelessB.hostR3.wlan[0].mac packetDropNotAddressedToUs:vector(packetBytes) ETV
attr interpolationmode none
attr source packetDropReasonIsNotAddressedToUs(packetDropped)
attr title "packet drop: not addressed to us, vector(packetBytes)"
vector 33 WirelessB.hostR1.wlan[0].mac packetDropNotAddressedToUs:vector(packetBytes) ETV
attr interpolationmode none
attr source packetDropReasonIsNotAddressedToUs(packetDropped)
attr title "packet drop: not addressed to us, vector(packetBytes)"
vector 34 WirelessB.hostB.wlan[0].mac packetDropRetryLimitReached:vector(packetBytes) ETV
attr interpolationmode none
attr source packetDropReasonIsRetryLimitReached(packetDropped)
attr title "packet drop: retry limit reached, vector(packetBytes)"
vector 35 WirelessB.hostR1.wlan[0].mac.queue packetPushed:vector(packetBytes) ETV
attr interpolationmode none
attr title "packet pushed, vector(packetBytes)"
vector 36 WirelessB.hostR1.wlan[0].mac.queue queueLength:vector ETV
attr interpolationmode sample-hold
attr source "count(packetPushed) - count(packetPopped) - count(packetRemoved) - count(packetDropped)"
attr title "queue length, vector"
vector 37 WirelessB.hostR1.wlan[0].mac.queue packetPopped:vector(packetBytes) ETV
attr interpolationmode none
attr title "packet popped, vector(packetBytes)"
vector 38 WirelessB.hostR1.wlan[0].mac.queue queueingTime:vector ETV
attr interpolationmode none
attr source queueingTime(packetPopped)
attr title "queueing times, vector"
attr unit s
vector 39 WirelessB.hostR1.wlan[0].radio transmissionState:vector ETV
attr interpolationmode sample-hold
attr source transmissionStateChanged
attr title "Radio transmission state, vector"
vector 40 WirelessB.hostR2.wlan[0].mac packetDropNotAddressedToUs:vector(packetBytes) ETV
attr interpolationmode none
attr source packetDropReasonIsNotAddressedToUs(packetDropped)
attr title "packet drop: not addressed to us, vector(packetBytes)"
vector 41 WirelessB.hostA.wlan[0].mac packetDropNotAddressedToUs:vector(packetBytes) ETV
attr interpolationmode none
attr source packetDropReasonIsNotAddressedToUs(packetDropped)
attr title "packet drop: not addressed to us, vector(packetBytes)"
vector 42 WirelessB.hostB.wlan[0].mac packetDropNotAddressedToUs:vector(packetBytes) ETV
attr interpolationmode none
attr source packetDropReasonIsNotAddressedToUs(packetDropped)
attr title "packet drop: not addressed to us, vector(packetBytes)"
vector 43 WirelessB.hostR1.wlan[0].mac packetDropRetryLimitReached:vector(packetBytes) ETV
attr interpolationmode none
attr source packetDropReasonIsRetryLimitReached(packetDropped)
attr title "packet drop: retry limit reached, vector(packetBytes)"
vector 44 WirelessB.hostR2.wlan[0].mac.queue packetPushed:vector(packetBytes) ETV
attr interpolationmode none
attr title "packet pushed, vector(packetBytes)"
vector 45 WirelessB.hostR2.wlan[0].mac.queue queueLength:vector ETV
attr interpolationmode sample-hold
attr source "count(packetPushed) - count(packetPopped) - count(packetRemoved) - count(packetDropped)"
attr title "queue length, vector"
vector 46 WirelessB.hostR2.wlan[0].mac.queue packetPopped:vector(packetBytes) ETV
attr interpolationmode none
attr title "packet popped, vector(packetBytes)"
vector 47 WirelessB.hostR2.wlan[0].mac.queue queueingTime:vector ETV
attr interpolationmode none
attr source queueingTime(packetPopped)
attr title "queueing times, vector"
attr unit s
vector 48 WirelessB.hostR2.wlan[0].radio transmissionState:vector ETV
attr interpolationmode sample-hold
attr source transmissionStateChanged
attr title "Radio transmission state, vector"
vector 49 WirelessB.hostR2.wlan[0].mac packetDropRetryLimitReached:vector(packetBytes) ETV
attr interpolationmode none
attr source packetDropReasonIsRetryLimitReached(packetDropped)
attr title "packet drop: retry limit reached, vector(packetBytes)"
vector 50 WirelessB.hostR3.wlan[0].mac.queue packetPushed:vector(packetBytes) ETV
attr interpolationmode none
attr title "packet pushed, vector(packetBytes)"
vector 51 WirelessB.hostR3.wlan[0].mac.queue queueLength:vector ETV
attr interpolationmode sample-hold
attr source "count(packetPushed) - count(packetPopped) - count(packetRemoved) - count(packetDropped)"
attr title "queue length, vector"
vector 52 WirelessB.hostR3.wlan[0].mac.queue packetPopped:vector(packetBytes) ETV
attr interpolationmode none
attr title "packet popped, vector(packetBytes)"
vector 53 WirelessB.hostR3.wlan[0].mac.queue queueingTime:vector ETV
attr interpolationmode none
attr source queueingTime(packetPopped)
attr title "queueing times, vector"
attr unit s
vector 54 WirelessB.hostR3.wlan[0].radio transmissionState:vector ETV
attr interpolationmode sample-hold
attr source transmissionStateChanged
attr title "Radio transmission state, vector"
vector 55 WirelessB.hostR3.wlan[0].mac packetDropRetryLimitReached:vector(packetBytes) ETV
attr interpolationmode none
attr source packetDropReasonIsRetryLimitReached(packetDropped)
attr title "packet drop: retry limit reached, vector(packetBytes)"
vector 56 WirelessB.hostA.wlan[0].mac.queue packetPushed:vector(packetBytes) ETV
attr interpolationmode none
attr title "packet pushed, vector(packetBytes)"
vector 57 WirelessB.hostA.wlan[0].mac.queue queueLength:vector ETV
attr interpolationmode sample-hold
attr source "count(packetPushed) - count(packetPopped) - count(packetRemoved) - count(packetDropped)"
attr title "queue length, vector"
vector 58 WirelessB.hostA.wlan[0].mac.queue packetPopped:vector(packetBytes) ETV
attr interpolationmode none
attr title "packet popped, vector(packetBytes)"
vector 59 WirelessB.hostA.wlan[0].mac.queue queueingTime:vector ETV
attr interpolationmode none
attr source queueingTime(packetPopped)
attr title "queueing times, vector"
attr unit s
vector 60 WirelessB.hostA.wlan[0].radio transmissionState:vector ETV
attr interpolationmode sample-hold
attr source transmissionStateChanged
attr title "Radio transmission state, vector"
vector 61 WirelessB.hostA.wlan[0].mac packetDropRetryLimitReached:vector(packetBytes) ETV
attr interpolationmode none
attr source packetDropReasonIsRetryLimitReached(packetDropped)
attr title "packet drop: retry limit reached, vector(packetBytes)"
vector 62 WirelessB.hostA.app[0] throughput:vector ETV
attr source throughput(packetReceived)
attr title "throughput, vector"
attr unit bps
vector 63 WirelessB.hostB.app[0] throughput:vector ETV
attr source throughput(packetReceived)
attr title "throughput, vector"
attr unit bps
0	0	0	0
0	0	0	0
0	0	0	0
0	0	0	0
0	0	0	0.002
0	2138	7.726614279428	0.005
0	2145	7.727246279428	0.002
0	2153	7.727676279428	0.005
0	2160	7.728308279428	0.002
0	2168	7.729018279428	0.005
0	2175	7.729650279428	0.002
0	2183	7.730460279428	0.005
0	2190	7.731092279428	0.002
0	2198	7.731862279428	0.005
0	2205	7.732494279428	0.002
0	2213	7.733444279428	0.005
0	2220	7.734076279428	0.002
0	2228	7.734466279428	0.005
0	2235	7.735098279428	0.002
0	2243	7.735608279428	0.005
0	2250	7.736240279428	0.002
0	2592	8.834666010731	0
0	2592	8.834666010731	0.01
0	2599	8.835298010731	0.002
0	2609	8.836048010762	0.01
0	2616	8.836680010762	0.002
0	2626	8.837210010787	0.01
0	2633	8.837842010787	0.002
0	2643	8.838512010816	0.01
0	2650	8.839144010816	0.002
0	2660	8.83961401084	0.01
0	2670	8.84024601084	0.002
0	2680	8.840656010863	0.01
0	2687	8.841288010863	0.002
0	2697	8.841958010891	0.01
0	2704	8.842590010891	0.002
0	2714	8.842940010913	0.01
0	2721	8.843572010913	0.002
0	2998	9.777241451099	0.01
0	3003	9.777873451099	0.002
0	3014	9.778683451094	0.01
0	3019	9.779315451094	0.002
0	3030	9.77990545109	0.01
0	3035	9.78053745109	0.002
0	3046	9.781027451087	0.01
0	3051	9.781659451087	0.002
0	3062	9.782249451083	0.01
0	3067	9.782881451083	0.002
0	3078	9.78323145108	0.01
0	3083	9.78386345108	0.002
0	3094	9.784613451076	0.01
0	3099	9.785245451076	0.002
0	3110	9.785815451073	0.01
0	3115	9.786447451073	0.002
0	3998	12.917881339973	0.005
0	3998	12.917881339973	0.005
0	4006	12.918513339973	0.002
0	4014	12.918903339977	0.005
0	4022	12.919535339977	0.002
0	4030	12.920385339983	0.005
0	4038	12.921017339983	0.002
0	4046	12.921947339989	0.005
0	4054	12.922579339989	0.002
0	4062	12.923409339995	0.005
0	4070	12.924041339995	0.002
0	4078	12.924391339999	0.005
0	4086	12.925023339999	0.002
0	4094	12.925993340006	0.005
0	4102	12.926625340006	0.002
0	4110	12.927455340011	0.005
0	4121	12.928087340011	0.002
0	4579	14.636997640575	0
0	4579	14.636997640575	0
0	4579	14.636997640575	0.002
0	4580	14.636997640575	0
0	4580	14.636997640575	0.1
0	4585	14.637629640575	0.002
0	4585	14.637629640575	0
0	4585	14.637629640575	0.002
0	4585	14.637629640575	0.002
0	4585	14.637629640575	0.002
0	4593	14.638179640575	0
0	4593	14.638179640575	0
0	4593	14.638179640575	0.002
0	4594	14.638179640575	0
0	4594	14.638179640575	0.1
0	4599	14.638811640575	0.002
0	4599	14.638811640575	0
0	4599	14.638811640575	0.002
0	4599	14.638811640575	0.002
0	4599	14.638811640575	0.002
0	4607	14.639381640575	0
0	4607	14.639381640575	0
0	4607	14.639381640575	0.002
0	4608	14.639381640575	0
0	4608	14.639381640575	0.1
0	4613	14.640013640575	0.002
0	4613	14.640013640575	0
0	4613	14.640013640575	0.002
0	4613	14.640013640575	0.002
0	4613	14.640013640575	0.002
0	4621	14.640943640575	0
0	4621	14.640943640575	0
0	4621	14.640943640575	0.002
0	4622	14.640943640575	0
0	4622	14.640943640575	0.1
0	4627	14.641575640575	0.002
0	4627	14.641575640575	0
0	4627	14.641575640575	0.002
0	4627	14.641575640575	0.002
0	4627	14.641575640575	0.002
0	4635	14.641965640575	0
0	4635	14.641965640575	0
0	4635	14.641965640575	0.002
0	4636	14.641965640575	0
0	4636	14.641965640575	0.1
0	4641	14.642597640575	0.002
0	4641	14.642597640575	0
0	4641	14.642597640575	0.002
0	4641	14.642597640575	0.002
0	4641	14.642597640575	0.002
0	4649	14.643147640575	0
0	4649	14.643147640575	0
0	4649	14.643147640575	0.002
0	4650	14.643147640575	0
0	4650	14.643147640575	0.1
0	4655	14.643779640575	0.002
0	4655	14.643779640575	0
0	4655	14.643779640575	0.002
0	4655	14.643779640575	0.002
0	4655	14.643779640575	0.002
0	4663	14.644369640575	0
0	4663	14.644369640575	0
0	4663	14.644369640575	0.002
0	4664	14.644369640575	0
0	4664	14.644369640575	0.1
0	4669	14.645001640575	0.002
0	4669	14.645001640575	0
0	4669	14.645001640575	0.002
0	4669	14.645001640575	0.002
0	4669	14.645001640575	0.002
0	4677	14.645691640575	0
0	4677	14.645691640575	0
0	4677	14.645691640575	0.002
0	4678	14.645691640575	0
0	4678	14.645691640575	0.1
0	4683	14.646323640575	0.002
0	4683	14.646323640575	0
0	4683	14.646323640575	0.002
0	4683	14.646323640575	0.002
0	4683	14.646323640575	0.002
0	4958	15.620565854172	0.005
0	4965	15.621197854172	0.002
0	4973	15.621587854202	0.005
0	4980	15.622219854202	0.002
0	4988	15.62288985424	0.005
0	4995	15.62352185424	0.002
0	5003	15.62425185428	0.005
0	5010	15.62488385428	0.002
0	5018	15.625593854319	0.005
0	5025	15.626225854319	0.002
0	5033	15.626935854358	0.005
0	5040	15.627567854358	0.002
0	5048	15.628497854403	0.005
0	5055	15.629129854403	0.002
0	5063	15.629679854438	0.005
0	5070	15.630311854438	0.002
0	5093	15.659523908944	0
0	5093	15.659523908944	0.01
0	5098	15.660155908944	0.002
0	5109	15.660645908968	0.01
0	5114	15.661277908968	0.002
0	5125	15.661827908993	0.01
0	5130	15.662459908993	0.002
0	5141	15.66308990902	0.01
0	5146	15.66372190902	0.002
0	5157	15.664171909043	0.01
0	5162	15.664803909043	0.002
0	5173	15.665713909076	0.01
0	5178	15.666345909076	0.002
0	5189	15.66731590911	0.01
0	5194	15.66794790911	0.002
0	5205	15.668517909136	0.01
0	5210	15.669149909136	0.002
0	6078	18.688865461008	0.005
0	6078	18.688865461008	0.005
0	6084	18.689497461008	0.002
0	6092	18.690207461008	0.005
0	6101	18.690839461008	0.002
0	6109	18.691749461008	0.005
0	6115	18.692381461008	0.002
0	6123	18.693331461008	0.005
0	6129	18.693963461008	0.002
0	6137	18.694413461008	0.005
0	6143	18.695045461008	0.002
0	6151	18.695875461008	0.005
0	6157	18.696507461008	0.002
0	6165	18.697457461008	0.005
0	6171	18.698089461008	0.002
0	6179	18.698619461008	0.005
0	6188	18.699251461008	0.002
0	7025	21.622620404143	0.005
0	7032	21.623252404143	0.002
0	7040	21.623722404179	0.005
0	7047	21.624354404179	0.002
0	7055	21.62498440422	0.005
0	7062	21.62561640422	0.002
0	7070	21.626286404263	0.005
0	7077	21.626918404263	0.002
0	7088	21.627868404315	0.005
0	7095	21.628500404315	0.002
0	7103	21.629290404361	0.005
0	7110	21.629922404361	0.002
0	7118	21.630552404403	0.005
0	7125	21.631184404403	0.002
0	7133	21.631594404437	0.005
0	7140	21.632226404437	0.002
0	8058	24.781682224929	0
0	8058	24.781682224929	0
0	8058	24.781682224929	0.002
0	8059	24.781682224929	0
0	8059	24.781682224929	0.1
0	8064	24.782314224929	0.002
0	8064	24.782314224929	0
0	8064	24.782314224929	0.002
0	8064	24.782314224929	0.002
0	8064	24.782314224929	0.002
0	8075	24.783124224929	0
0	8075	24.783124224929	0
0	8075	24.783124224929	0.002
0	8076	24.783124224929	0
0	8076	24.783124224929	0.1
0	8081	24.783756224929	0.002
0	8081	24.783756224929	0
0	8081	24.783756224929	0.002
0	8081	24.783756224929	0.002
0	8081	24.783756224929	0.002
0	8089	24.784106224929	0
0	8089	24.784106224929	0
0	8089	24.784106224929	0.002
0	8090	24.784106224929	0
0	8090	24.784106224929	0.1
0	8095	24.784738224929	0.002
0	8095	24.784738224929	0
0	8095	24.784738224929	0.002
0	8095	24.784738224929	0.002
0	8095	24.784738224929	0.002
0	8103	24.785228224929	0
0	8103	24.785228224929	0
0	8103	24.785228224929	0.002
0	8104	24.785228224929	0
0	8104	24.785228224929	0.1
0	8109	24.785860224929	0.002
0	8109	24.785860224929	0
0	8109	24.785860224929	0.002
0	8109	24.785860224929	0.002
0	8109	24.785860224929	0.002
0	8117	24.786810224929	0
0	8117	24.786810224929	0
0	8117	24.786810224929	0.002
0	8118	24.786810224929	0
0	8118	24.786810224929	0.1
0	8123	24.787442224929	0.002
0	8123	24.787442224929	0
0	8123	24.787442224929	0.002
0	8123	24.787442224929	0.002
0	8123	24.787442224929	0.002
0	8131	24.788152224929	0
0	8131	24.788152224929	0
0	8131	24.788152224929	0.002
0	8132	24.788152224929	0
0	8132	24.788152224929	0.1
0	8137	24.788784224929	0.002
0	8137	24.788784224929	0
0	8137	24.788784224929	0.002
0	8137	24.788784224929	0.002
0	8137	24.788784224929	0.002
0	8145	24.789134224929	0
0	8145	24.789134224929	0
0	8145	24.789134224929	0.002
0	8146	24.789134224929	0
0	8146	24.789134224929	0.1
0	8151	24.789766224929	0.002
0	8151	24.789766224929	0
0	8151	24.789766224929	0.002
0	8151	24.789766224929	0.002
0	8151	24.789766224929	0.002
0	8159	24.790156224929	0
0	8159	24.790156224929	0
0	8159	24.790156224929	0.002
0	8160	24.790156224929	0
0	8160	24.790156224929	0.1
0	8165	24.790788224929	0.002
0	8165	24.790788224929	0
0	8165	24.790788224929	0.002
0	8165	24.790788224929	0.002
0	8165	24.790788224929	0.002
1	0	0	0
1	0	0	0
1	0	0	0
1	0	0	0
1	0	0	0.002
1	2133	7.726612945172	0
1	2133	7.726612945172	0
1	2133	7.726612945172	0.002
1	2134	7.726612945172	0
1	2134	7.726612945172	0.1
1	2139	7.727244945172	0.002
1	2139	7.727244945172	0
1	2139	7.727244945172	0.002
1	2139	7.727244945172	0.002
1	2139	7.727244945172	0.002
1	2148	7.727674945172	0
1	2148	7.727674945172	0
1	2148	7.727674945172	0.002
1	2149	7.727674945172	0
1	2149	7.727674945172	0.1
1	2154	7.728306945172	0.002
1	2154	7.728306945172	0
1	2154	7.728306945172	0.002
1	2154	7.728306945172	0.002
1	2154	7.728306945172	0.002
1	2163	7.729016945172	0
1	2163	7.729016945172	0
1	2163	7.729016945172	0.002
1	2164	7.729016945172	0
1	2164	7.729016945172	0.1
1	2169	7.729648945172	0.002
1	2169	7.729648945172	0
1	2169	7.729648945172	0.002
1	2169	7.729648945172	0.002
1	2169	7.729648945172	0.002
1	2178	7.730458945172	0
1	2178	7.730458945172	0
1	2178	7.730458945172	0.002
1	2179	7.730458945172	0
1	2179	7.730458945172	0.1
1	2184	7.731090945172	0.002
1	2184	7.731090945172	0
1	2184	7.731090945172	0.002
1	2184	7.731090945172	0.002
1	2184	7.731090945172	0.002
1	2193	7.731860945172	0
1	2193	7.731860945172	0
1	2193	7.731860945172	0.002
1	2194	7.731860945172	0
1	2194	7.731860945172	0.1
1	2199	7.732492945172	0.002
1	2199	7.732492945172	0
1	2199	7.732492945172	0.002
1	2199	7.732492945172	0.002
1	2199	7.732492945172	0.002
1	2208	7.733442945172	0
1	2208	7.733442945172	0
1	2208	7.733442945172	0.002
1	2209	7.733442945172	0
1	2209	7.733442945172	0.1
1	2214	7.734074945172	0.002
1	2214	7.734074945172	0
1	2214	7.734074945172	0.002
1	2214	7.734074945172	0.002
1	2214	7.734074945172	0.002
1	2223	7.734464945172	0
1	2223	7.734464945172	0
1	2223	7.734464945172	0.002
1	2224	7.734464945172	0
1	2224	7.734464945172	0.1
1	2229	7.735096945172	0.002
1	2229	7.735096945172	0
1	2229	7.735096945172	0.002
1	2229	7.735096945172	0.002
1	2229	7.735096945172	0.002
1	2238	7.735606945172	0
1	2238	7.735606945172	0
1	2238	7.735606945172	0.002
1	2239	7.735606945172	0
1	2239	7.735606945172	0.1
1	2244	7.736238945172	0.002
1	2244	7.736238945172	0
1	2244	7.736238945172	0.002
1	2244	7.736238945172	0.002
1	2244	7.736238945172	0.002
1	2593	8.834666010731	0
1	2593	8.834666010731	0.01
1	2600	8.835298010731	0.002
1	2610	8.836048010762	0.01
1	2617	8.836680010762	0.002
1	2627	8.837210010787	0.01
1	2634	8.837842010787	0.002
1	2644	8.838512010816	0.01
1	2651	8.839144010816	0.002
1	2661	8.83961401084	0.01
1	2671	8.84024601084	0.002
1	2681	8.840656010863	0.01
1	2688	8.841288010863	0.002
1	2698	8.841958010891	0.01
1	2705	8.842590010891	0.002
1	2715	8.842940010913	0.01
1	2722	8.843572010913	0.002
1	3001	9.777242117574	0.005
1	3001	9.777242117574	0.005
1	3009	9.777874117574	0.002
1	3017	9.778684117572	0.005
1	3025	9.779316117572	0.002
1	3033	9.779906117571	0.005
1	3041	9.780538117571	0.002
1	3049	9.78102811757	0.005
1	3057	9.78166011757	0.002
1	3065	9.782250117568	0.005
1	3073	9.782882117568	0.002
1	3081	9.783232117567	0.005
1	3089	9.783864117567	0.002
1	3097	9.784614117566	0.005
1	3105	9.785246117566	0.002
1	3113	9.785816117565	0.005
1	3121	9.786448117565	0.002
1	3995	12.91788068255	0
1	3995	12.91788068255	0.01
1	4000	12.91851268255	0.002
1	4011	12.918902682562	0.01
1	4016	12.919534682562	0.002
1	4027	12.920384682579	0.01
1	4032	12.921016682579	0.002
1	4043	12.921946682597	0.01
1	4048	12.922578682597	0.002
1	4059	12.923408682614	0.01
1	4064	12.924040682614	0.002
1	4075	12.924390682625	0.01
1	4080	12.925022682625	0.002
1	4091	12.925992682644	0.01
1	4096	12.926624682644	0.002
1	4107	12.92745468266	0.01
1	4115	12.92808668266	0.002
1	4584	14.636998974831	0.005
1	4584	14.636998974831	0.005
1	4590	14.637630974831	0.002
1	4598	14.638180974831	0.005
1	4604	14.638812974831	0.002
1	4612	14.639382974831	0.005
1	4618	14.640014974831	0.002
1	4626	14.640944974831	0.005
1	4632	14.641576974831	0.002
1	4640	14.641966974831	0.005
1	4646	14.642598974831	0.002
1	4654	14.643148974831	0.005
1	4660	14.643780974831	0.002
1	4668	14.644370974831	0.005
1	4674	14.645002974831	0.002
1	4682	14.645692974831	0.005
1	4688	14.646324974831	0.002
1	4959	15.620565854172	0.005
1	4966	15.621197854172	0.002
1	4974	15.621587854202	0.005
1	4981	15.622219854202	0.002
1	4989	15.62288985424	0.005
1	4996	15.62352185424	0.002
1	5004	15.62425185428	0.005
1	5011	15.62488385428	0.002
1	5019	15.625593854319	0.005
1	5026	15.626225854319	0.002
1	5034	15.626935854358	0.005
1	5041	15.627567854358	0.002
1	5049	15.628497854403	0.005
1	5056	15.629129854403	0.002
1	5064	15.629679854438	0.005
1	5071	15.630311854438	0.002
1	5096	15.659524537316	0.005
1	5104	15.660156537316	0.002
1	5112	15.660646537325	0.005
1	5120	15.661278537325	0.002
1	5128	15.661828537335	0.005
1	5136	15.662460537335	0.002
1	5144	15.663090537345	0.005
1	5152	15.663722537345	0.002
1	5160	15.664172537354	0.005
1	5168	15.664804537354	0.002
1	5176	15.665714537367	0.005
1	5184	15.666346537367	0.002
1	5192	15.66731653738	0.005
1	5200	15.66794853738	0.002
1	5208	15.66851853739	0.005
1	5216	15.66915053739	0.002
1	6073	18.688864126752	0
1	6073	18.688864126752	0
1	6073	18.688864126752	0.002
1	6074	18.688864126752	0
1	6074	18.688864126752	0.1
1	6079	18.689496126752	0.002
1	6079	18.689496126752	0
1	6079	18.689496126752	0.002
1	6079	18.689496126752	0.002
1	6079	18.689496126752	0.002
1	6087	18.690206126752	0
1	6087	18.690206126752	0
1	6087	18.690206126752	0.002
1	6088	18.690206126752	0
1	6088	18.690206126752	0.1
1	6096	18.690838126752	0.002
1	6096	18.690838126752	0
1	6096	18.690838126752	0.002
1	6096	18.690838126752	0.002
1	6096	18.690838126752	0.002
1	6104	18.691748126752	0
1	6104	18.691748126752	0
1	6104	18.691748126752	0.002
1	6105	18.691748126752	0
1	6105	18.691748126752	0.1
1	6110	18.692380126752	0.002
1	6110	18.692380126752	0
1	6110	18.692380126752	0.002
1	6110	18.692380126752	0.002
1	6110	18.692380126752	0.002
1	6118	18.693330126752	0
1	6118	18.693330126752	0
1	6118	18.693330126752	0.002
1	6119	18.693330126752	0
1	6119	18.693330126752	0.1
1	6124	18.693962126752	0.002
1	6124	18.693962126752	0
1	6124	18.693962126752	0.002
1	6124	18.693962126752	0.002
1	6124	18.693962126752	0.002
1	6132	18.694412126752	0
1	6132	18.694412126752	0
1	6132	18.694412126752	0.002
1	6133	18.694412126752	0
1	6133	18.694412126752	0.1
1	6138	18.695044126752	0.002
1	6138	18.695044126752	0
1	6138	18.695044126752	0.002
1	6138	18.695044126752	0.002
1	6138	18.695044126752	0.002
1	6146	18.695874126752	0
1	6146	18.695874126752	0
1	6146	18.695874126752	0.002
1	6147	18.695874126752	0
1	6147	18.695874126752	0.1
1	6152	18.696506126752	0.002
1	6152	18.696506126752	0
1	6152	18.696506126752	0.002
1	6152	18.696506126752	0.002
1	6152	18.696506126752	0.002
1	6160	18.697456126752	0
1	6160	18.697456126752	0
1	6160	18.697456126752	0.002
1	6161	18.697456126752	0
1	6161	18.697456126752	0.1
1	6166	18.698088126752	0.002
1	6166	18.698088126752	0
1	6166	18.698088126752	0.002
1	6166	18.698088126752	0.002
1	6166	18.698088126752	0.002
1	6174	18.698618126752	0
1	6174	18.698618126752	0
1	6174	18.698618126752	0.002
1	6175	18.698618126752	0
1	6175	18.698618126752	0.1
1	6183	18.699250126752	0.002
1	6183	18.699250126752	0
1	6183	18.699250126752	0.002
1	6183	18.699250126752	0.002
1	6183	18.699250126752	0.002
1	7026	21.622620404143	0.005
1	7033	21.623252404143	0.002
1	7041	21.623722404179	0.005
1	7048	21.624354404179	0.002
1	7056	21.62498440422	0.005
1	7063	21.62561640422	0.002
1	7071	21.626286404263	0.005
1	7078	21.626918404263	0.002
1	7089	21.627868404315	0.005
1	7096	21.628500404315	0.002
1	7104	21.629290404361	0.005
1	7111	21.629922404361	0.002
1	7119	21.630552404403	0.005
1	7126	21.631184404403	0.002
1	7134	21.631594404437	0.005
1	7141	21.632226404437	0.002
1	8063	24.781683559185	0.005
1	8069	24.782315559185	0.002
1	8080	24.783125559185	0.005
1	8086	24.783757559185	0.002
1	8094	24.784107559185	0.005
1	8100	24.784739559185	0.002
1	8108	24.785229559185	0.005
1	8114	24.785861559185	0.002
1	8122	24.786811559185	0.005
1	8128	24.787443559185	0.002
1	8136	24.788153559185	0.005
1	8142	24.788785559185	0.002
1	8150	24.789135559185	0.005
1	8156	24.789767559185	0.002
1	8164	24.790157559185	0.005
1	8170	24.790789559185	0.002
2	0	0	0
2	0	0	0
2	0	0	0
2	0	0	0
2	0	0	0.002
2	2136	7.726613719284	0
2	2136	7.726613719284	0.01
2	2142	7.727245719284	0.002
2	2151	7.727675719306	0.01
2	2157	7.728307719306	0.002
2	2166	7.729017719333	0.01
2	2172	7.729649719333	0.002
2	2181	7.730459719362	0.01
2	2187	7.731091719362	0.002
2	2196	7.731861719391	0.01
2	2202	7.732493719391	0.002
2	2211	7.733443719423	0.01
2	2217	7.734075719423	0.002
2	2226	7.734465719443	0.01
2	2232	7.735097719443	0.002
2	2241	7.735607719467	0.01
2	2247	7.736239719467	0.002
2	2588	8.834665213205	0
2	2588	8.834665213205	0
2	2588	8.834665213205	0.002
2	2588	8.834665213205	0.002
2	2589	8.834665213205	0
2	2589	8.834665213205	0.1
2	2594	8.835297213205	0.002
2	2594	8.835297213205	0
2	2594	8.835297213205	0.002
2	2594	8.835297213205	0.002
2	2594	8.835297213205	0.002
2	2605	8.836047213205	0
2	2605	8.836047213205	0
2	2605	8.836047213205	0.002
2	2606	8.836047213205	0
2	2606	8.836047213205	0.1
2	2611	8.836679213205	0.002
2	2611	8.836679213205	0
2	2611	8.836679213205	0.002
2	2611	8.836679213205	0.002
2	2611	8.836679213205	0.002
2	2622	8.837209213205	0
2	2622	8.837209213205	0
2	2622	8.837209213205	0.002
2	2623	8.837209213205	0
2	2623	8.837209213205	0.1
2	2628	8.837841213205	0.002
2	2628	8.837841213205	0
2	2628	8.837841213205	0.002
2	2628	8.837841213205	0.002
2	2628	8.837841213205	0.002
2	2639	8.838511213205	0
2	2639	8.838511213205	0
2	2639	8.838511213205	0.002
2	2640	8.838511213205	0
2	2640	8.838511213205	0.1
2	2645	8.839143213205	0.002
2	2645	8.839143213205	0
2	2645	8.839143213205	0.002
2	2645	8.839143213205	0.002
2	2645	8.839143213205	0.002
2	2656	8.839613213205	0
2	2656	8.839613213205	0
2	2656	8.839613213205	0.002
2	2657	8.839613213205	0
2	2657	8.839613213205	0.1
2	2665	8.840245213205	0.002
2	2665	8.840245213205	0
2	2665	8.840245213205	0.002
2	2665	8.840245213205	0.002
2	2665	8.840245213205	0.002
2	2676	8.840655213205	0
2	2676	8.840655213205	0
2	2676	8.840655213205	0.002
2	2677	8.840655213205	0
2	2677	8.840655213205	0.1
2	2682	8.841287213205	0.002
2	2682	8.841287213205	0
2	2682	8.841287213205	0.002
2	2682	8.841287213205	0.002
2	2682	8.841287213205	0.002
2	2693	8.841957213205	0
2	2693	8.841957213205	0
2	2693	8.841957213205	0.002
2	2694	8.841957213205	0
2	2694	8.841957213205	0.1
2	2699	8.842589213205	0.002
2	2699	8.842589213205	0
2	2699	8.842589213205	0.002
2	2699	8.842589213205	0.002
2	2699	8.842589213205	0.002
2	2710	8.842939213205	0
2	2710	8.842939213205	0
2	2710	8.842939213205	0.002
2	2711	8.842939213205	0
2	2711	8.842939213205	0.1
2	2716	8.843571213205	0.002
2	2716	8.843571213205	0
2	2716	8.843571213205	0.002
2	2716	8.843571213205	0.002
2	2716	8.843571213205	0.002
2	2999	9.777241717895	0
2	2999	9.777241717895	0.01
2	3005	9.777873717895	0.002
2	3015	9.778683717895	0.01
2	3021	9.779315717895	0.002
2	3031	9.779905717895	0.01
2	3037	9.780537717895	0.002
2	3047	9.781027717895	0.01
2	3053	9.781659717895	0.002
2	3063	9.782249717895	0.01
2	3069	9.782881717895	0.002
2	3079	9.783231717895	0.01
2	3085	9.783863717895	0.002
2	3095	9.784613717895	0.01
2	3101	9.785245717895	0.002
2	3111	9.785815717895	0.01
2	3117	9.786447717895	0.002
2	3996	12.917880935626	0.01
2	4002	12.918512935626	0.002
2	4012	12.918902935626	0.01
2	4018	12.919534935626	0.002
2	4028	12.920384935626	0.01
2	4034	12.921016935626	0.002
2	4044	12.921946935626	0.01
2	4050	12.922578935626	0.002
2	4060	12.923408935626	0.01
2	4066	12.924040935626	0.002
2	4076	12.924390935626	0.01
2	4082	12.925022935626	0.002
2	4092	12.925992935626	0.01
2	4098	12.926624935626	0.002
2	4108	12.927454935626	0.01
2	4117	12.928086935626	0.002
2	4582	14.636998585557	0.005
2	4582	14.636998585557	0.005
2	4588	14.637630585557	0.002
2	4596	14.63818058559	0.005
2	4602	14.63881258559	0.002
2	4610	14.639382585624	0.005
2	4616	14.640014585624	0.002
2	4624	14.640944585669	0.005
2	4630	14.641576585669	0.002
2	4638	14.641966585698	0.005
2	4644	14.642598585698	0.002
2	4652	14.643148585731	0.005
2	4658	14.643780585731	0.002
2	4666	14.644370585766	0.005
2	4672	14.645002585766	0.002
2	4680	14.645692585803	0.005
2	4686	14.646324585803	0.002
2	4954	15.62056488091	0
2	4954	15.62056488091	0
2	4954	15.62056488091	0.002
2	4955	15.62056488091	0
2	4955	15.62056488091	0.1
2	4960	15.62119688091	0.002
2	4960	15.62119688091	0
2	4960	15.62119688091	0.002
2	4960	15.62119688091	0.002
2	4960	15.62119688091	0.002
2	4969	15.62158688091	0
2	4969	15.62158688091	0
2	4969	15.62158688091	0.002
2	4970	15.62158688091	0
2	4970	15.62158688091	0.1
2	4975	15.62221888091	0.002
2	4975	15.62221888091	0
2	4975	15.62221888091	0.002
2	4975	15.62221888091	0.002
2	4975	15.62221888091	0.002
2	4984	15.62288888091	0
2	4984	15.62288888091	0
2	4984	15.62288888091	0.002
2	4985	15.62288888091	0
2	4985	15.62288888091	0.1
2	4990	15.62352088091	0.002
2	4990	15.62352088091	0
2	4990	15.62352088091	0.002
2	4990	15.62352088091	0.002
2	4990	15.62352088091	0.002
2	4999	15.62425088091	0
2	4999	15.62425088091	0
2	4999	15.62425088091	0.002
2	5000	15.62425088091	0
2	5000	15.62425088091	0.1
2	5005	15.62488288091	0.002
2	5005	15.62488288091	0
2	5005	15.62488288091	0.002
2	5005	15.62488288091	0.002
2	5005	15.62488288091	0.002
2	5014	15.62559288091	0
2	5014	15.62559288091	0
2	5014	15.62559288091	0.002
2	5015	15.62559288091	0
2	5015	15.62559288091	0.1
2	5020	15.62622488091	0.002
2	5020	15.62622488091	0
2	5020	15.62622488091	0.002
2	5020	15.62622488091	0.002
2	5020	15.62622488091	0.002
2	5029	15.62693488091	0
2	5029	15.62693488091	0
2	5029	15.62693488091	0.002
2	5030	15.62693488091	0
2	5030	15.62693488091	0.1
2	5035	15.62756688091	0.002
2	5035	15.62756688091	0
2	5035	15.62756688091	0.002
2	5035	15.62756688091	0.002
2	5035	15.62756688091	0.002
2	5044	15.62849688091	0
2	5044	15.62849688091	0
2	5044	15.62849688091	0.002
2	5045	15.62849688091	0
2	5045	15.62849688091	0.1
2	5050	15.62912888091	0.002
2	5050	15.62912888091	0
2	5050	15.62912888091	0.002
2	5050	15.62912888091	0.002
2	5050	15.62912888091	0.002
2	5059	15.62967888091	0
2	5059	15.62967888091	0
2	5059	15.62967888091	0.002
2	5060	15.62967888091	0
2	5060	15.62967888091	0.1
2	5065	15.63031088091	0.002
2	5065	15.63031088091	0
2	5065	15.63031088091	0.002
2	5065	15.63031088091	0.002
2	5065	15.63031088091	0.002
2	5094	15.659524116196	0
2	5094	15.659524116196	0.01
2	5100	15.660156116196	0.002
2	5110	15.660646116196	0.01
2	5116	15.661278116196	0.002
2	5126	15.661828116196	0.01
2	5132	15.662460116196	0.002
2	5142	15.663090116196	0.01
2	5148	15.663722116196	0.002
2	5158	15.664172116196	0.01
2	5164	15.664804116196	0.002
2	5174	15.665714116196	0.01
2	5180	15.666346116196	0.002
2	5190	15.667316116196	0.01
2	5196	15.667948116196	0.002
2	5206	15.668518116196	0.01
2	5212	15.669150116196	0.002
2	6077	18.688865192768	0.005
2	6077	18.688865192768	0.005
2	6083	18.689497192768	0.002
2	6091	18.69020719281	0.005
2	6100	18.69083919281	0.002
2	6108	18.691749192858	0.005
2	6114	18.692381192858	0.002
2	6122	18.693331192908	0.005
2	6128	18.693963192908	0.002
2	6136	18.694413192942	0.005
2	6142	18.695045192942	0.002
2	6150	18.695875192987	0.005
2	6156	18.696507192987	0.002
2	6164	18.697457193037	0.005
2	6170	18.698089193037	0.002
2	6178	18.698619193073	0.005
2	6187	18.699251193073	0.002
2	7021	21.622619244203	0
2	7021	21.622619244203	0
2	7021	21.622619244203	0.002
2	7022	21.622619244203	0
2	7022	21.622619244203	0.1
2	7027	21.623251244203	0.002
2	7027	21.623251244203	0
2	7027	21.623251244203	0.002
2	7027	21.623251244203	0.002
2	7027	21.623251244203	0.002
2	7036	21.623721244203	0
2	7036	21.623721244203	0
2	7036	21.623721244203	0.002
2	7037	21.623721244203	0
2	7037	21.623721244203	0.1
2	7042	21.624353244203	0.002
2	7042	21.624353244203	0
2	7042	21.624353244203	0.002
2	7042	21.624353244203	0.002
2	7042	21.624353244203	0.002
2	7051	21.624983244203	0
2	7051	21.624983244203	0
2	7051	21.624983244203	0.002
2	7052	21.624983244203	0
2	7052	21.624983244203	0.1
2	7057	21.625615244203	0.002
2	7057	21.625615244203	0
2	7057	21.625615244203	0.002
2	7057	21.625615244203	0.002
2	7057	21.625615244203	0.002
2	7066	21.626285244203	0
2	7066	21.626285244203	0
2	7066	21.626285244203	0.002
2	7067	21.626285244203	0
2	7067	21.626285244203	0.1
2	7072	21.626917244203	0.002
2	7072	21.626917244203	0
2	7072	21.626917244203	0.002
2	7072	21.626917244203	0.002
2	7072	21.626917244203	0.002
2	7084	21.627867244203	0
2	7084	21.627867244203	0
2	7084	21.627867244203	0.002
2	7085	21.627867244203	0
2	7085	21.627867244203	0.1
2	7090	21.628499244203	0.002
2	7090	21.628499244203	0
2	7090	21.628499244203	0.002
2	7090	21.628499244203	0.002
2	7090	21.628499244203	0.002
2	7099	21.629289244203	0
2	7099	21.629289244203	0
2	7099	21.629289244203	0.002
2	7100	21.629289244203	0
2	7100	21.629289244203	0.1
2	7105	21.629921244203	0.002
2	7105	21.629921244203	0
2	7105	21.629921244203	0.002
2	7105	21.629921244203	0.002
2	7105	21.629921244203	0.002
2	7114	21.630551244203	0
2	7114	21.630551244203	0
2	7114	21.630551244203	0.002
2	7115	21.630551244203	0
2	7115	21.630551244203	0.1
2	7120	21.631183244203	0.002
2	7120	21.631183244203	0
2	7120	21.631183244203	0.002
2	7120	21.631183244203	0.002
2	7120	21.631183244203	0.002
2	7129	21.631593244203	0
2	7129	21.631593244203	0
2	7129	21.631593244203	0.002
2	7130	21.631593244203	0
2	7130	21.631593244203	0.1
2	7135	21.632225244203	0.002
2	7135	21.632225244203	0
2	7135	21.632225244203	0.002
2	7135	21.632225244203	0.002
2	7135	21.632225244203	0.002
2	8062	24.781683490404	0.005
2	8068	24.782315490404	0.002
2	8079	24.783125490453	0.005
2	8085	24.783757490453	0.002
2	8093	24.784107490486	0.005
2	8099	24.784739490486	0.002
2	8107	24.785229490524	0.005
2	8113	24.785861490524	0.002
2	8121	24.786811490578	0.005
2	8127	24.787443490578	0.002
2	8135	24.788153490624	0.005
2	8141	24.788785490624	0.002
2	8149	24.789135490657	0.005
2	8155	24.789767490657	0.002
2	8163	24.790157490692	0.005
2	8169	24.790789490692	0.002
3	0	0	0
3	0	0	0
3	0	0	0
3	0	0	0
3	0	0	0.002
3	2137	7.726613951641	0.005
3	2144	7.727245951641	0.002
3	2152	7.727675951636	0.005
3	2159	7.728307951636	0.002
3	2167	7.72901795163	0.005
3	2174	7.72964995163	0.002
3	2182	7.730459951624	0.005
3	2189	7.731091951624	0.002
3	2197	7.731861951618	0.005
3	2204	7.732493951618	0.002
3	2212	7.733443951612	0.005
3	2219	7.734075951612	0.002
3	2227	7.734465951607	0.005
3	2234	7.735097951607	0.002
3	2242	7.735607951602	0.005
3	2249	7.736239951602	0.002
3	2590	8.834665814546	0
3	2590	8.834665814546	0.01
3	2595	8.835297814546	0.002
3	2607	8.836047814546	0.01
3	2612	8.836679814546	0.002
3	2624	8.837209814546	0.01
3	2629	8.837841814546	0.002
3	2641	8.838511814546	0.01
3	2646	8.839143814546	0.002
3	2658	8.839613814546	0.01
3	2666	8.840245814546	0.002
3	2678	8.840655814546	0.01
3	2683	8.841287814546	0.002
3	2695	8.841957814546	0.01
3	2700	8.842589814546	0.002
3	2712	8.842939814546	0.01
3	2717	8.843571814546	0.002
3	2996	9.777241116554	0
3	2996	9.777241116554	0
3	2996	9.777241116554	0.002
3	2996	9.777241116554	0.002
3	2997	9.777241116554	0
3	2997	9.777241116554	0.1
3	3002	9.777873116554	0.002
3	3002	9.777873116554	0
3	3002	9.777873116554	0.002
3	3002	9.777873116554	0.002
3	3002	9.777873116554	0.002
3	3012	9.778683116554	0
3	3012	9.778683116554	0
3	3012	9.778683116554	0.002
3	3013	9.778683116554	0
3	3013	9.778683116554	0.1
3	3018	9.779315116554	0.002
3	3018	9.779315116554	0
3	3018	9.779315116554	0.002
3	3018	9.779315116554	0.002
3	3018	9.779315116554	0.002
3	3028	9.779905116554	0
3	3028	9.779905116554	0
3	3028	9.779905116554	0.002
3	3029	9.779905116554	0
3	3029	9.779905116554	0.1
3	3034	9.780537116554	0.002
3	3034	9.780537116554	0
3	3034	9.780537116554	0.002
3	3034	9.780537116554	0.002
3	3034	9.780537116554	0.002
3	3044	9.781027116554	0
3	3044	9.781027116554	0
3	3044	9.781027116554	0.002
3	3045	9.781027116554	0
3	3045	9.781027116554	0.1
3	3050	9.781659116554	0.002
3	3050	9.781659116554	0
3	3050	9.781659116554	0.002
3	3050	9.781659116554	0.002
3	3050	9.781659116554	0.002
3	3060	9.782249116554	0
3	3060	9.782249116554	0
3	3060	9.782249116554	0.002
3	3061	9.782249116554	0
3	3061	9.782249116554	0.1
3	3066	9.782881116554	0.002
3	3066	9.782881116554	0
3	3066	9.782881116554	0.002
3	3066	9.782881116554	0.002
3	3066	9.782881116554	0.002
3	3076	9.783231116554	0
3	3076	9.783231116554	0
3	3076	9.783231116554	0.002
3	3077	9.783231116554	0
3	3077	9.783231116554	0.1
3	3082	9.783863116554	0.002
3	3082	9.783863116554	0
3	3082	9.783863116554	0.002
3	3082	9.783863116554	0.002
3	3082	9.783863116554	0.002
3	3092	9.784613116554	0
3	3092	9.784613116554	0
3	3092	9.784613116554	0.002
3	3093	9.784613116554	0
3	3093	9.784613116554	0.1
3	3098	9.785245116554	0.002
3	3098	9.785245116554	0
3	3098	9.785245116554	0.002
3	3098	9.785245116554	0.002
3	3098	9.785245116554	0.002
3	3108	9.785815116554	0
3	3108	9.785815116554	0
3	3108	9.785815116554	0.002
3	3109	9.785815116554	0
3	3109	9.785815116554	0.1
3	3114	9.786447116554	0.002
3	3114	9.786447116554	0
3	3114	9.786447116554	0.002
3	3114	9.786447116554	0.002
3	3114	9.786447116554	0.002
3	3997	12.917881001413	0
3	3997	12.917881001413	0.01
3	4004	12.918513001413	0.002
3	4013	12.918903001413	0.01
3	4020	12.919535001413	0.002
3	4029	12.920385001413	0.01
3	4036	12.921017001413	0.002
3	4045	12.921947001413	0.01
3	4052	12.922579001413	0.002
3	4061	12.923409001413	0.01
3	4068	12.924041001413	0.002
3	4077	12.924391001413	0.01
3	4084	12.925023001413	0.002
3	4093	12.925993001413	0.01
3	4100	12.926625001413	0.002
3	4109	12.927455001413	0.01
3	4119	12.928087001413	0.002
3	4581	14.636998014477	0.01
3	4586	14.637630014477	0.002
3	4595	14.638180014498	0.01
3	4600	14.638812014498	0.002
3	4609	14.63938201452	0.01
3	4614	14.64001401452	0.002
3	4623	14.640944014548	0.01
3	4628	14.641576014548	0.002
3	4637	14.641966014566	0.01
3	4642	14.642598014566	0.002
3	4651	14.643148014588	0.01
3	4656	14.643780014588	0.002
3	4665	14.64437001461	0.01
3	4670	14.64500201461	0.002
3	4679	14.645692014634	0.01
3	4684	14.646324014634	0.002
3	4956	15.620565482251	0.01
3	4961	15.621197482251	0.002
3	4971	15.621587482251	0.01
3	4976	15.622219482251	0.002
3	4986	15.622889482251	0.01
3	4991	15.623521482251	0.002
3	5001	15.624251482251	0.01
3	5006	15.624883482251	0.002
3	5016	15.625593482251	0.01
3	5021	15.626225482251	0.002
3	5031	15.626935482251	0.01
3	5036	15.627567482251	0.002
3	5046	15.628497482251	0.01
3	5051	15.629129482251	0.002
3	5061	15.629679482251	0.01
3	5066	15.630311482251	0.002
3	5091	15.659523514855	0
3	5091	15.659523514855	0
3	5091	15.659523514855	0.002
3	5091	15.659523514855	0.002
3	5092	15.659523514855	0
3	5092	15.659523514855	0.1
3	5097	15.660155514855	0.002
3	5097	15.660155514855	0
3	5097	15.660155514855	0.002
3	5097	15.660155514855	0.002
3	5097	15.660155514855	0.002
3	5107	15.660645514855	0
3	5107	15.660645514855	0
3	5107	15.660645514855	0.002
3	5108	15.660645514855	0
3	5108	15.660645514855	0.1
3	5113	15.661277514855	0.002
3	5113	15.661277514855	0
3	5113	15.661277514855	0.002
3	5113	15.661277514855	0.002
3	5113	15.661277514855	0.002
3	5123	15.661827514855	0
3	5123	15.661827514855	0
3	5123	15.661827514855	0.002
3	5124	15.661827514855	0
3	5124	15.661827514855	0.1
3	5129	15.662459514855	0.002
3	5129	15.662459514855	0
3	5129	15.662459514855	0.002
3	5129	15.662459514855	0.002
3	5129	15.662459514855	0.002
3	5139	15.663089514855	0
3	5139	15.663089514855	0
3	5139	15.663089514855	0.002
3	5140	15.663089514855	0
3	5140	15.663089514855	0.1
3	5145	15.663721514855	0.002
3	5145	15.663721514855	0
3	5145	15.663721514855	0.002
3	5145	15.663721514855	0.002
3	5145	15.663721514855	0.002
3	5155	15.664171514855	0
3	5155	15.664171514855	0
3	5155	15.664171514855	0.002
3	5156	15.664171514855	0
3	5156	15.664171514855	0.1
3	5161	15.664803514855	0.002
3	5161	15.664803514855	0
3	5161	15.664803514855	0.002
3	5161	15.664803514855	0.002
3	5161	15.664803514855	0.002
3	5171	15.665713514855	0
3	5171	15.665713514855	0
3	5171	15.665713514855	0.002
3	5172	15.665713514855	0
3	5172	15.665713514855	0.1
3	5177	15.666345514855	0.002
3	5177	15.666345514855	0
3	5177	15.666345514855	0.002
3	5177	15.666345514855	0.002
3	5177	15.666345514855	0.002
3	5187	15.667315514855	0
3	5187	15.667315514855	0
3	5187	15.667315514855	0.002
3	5188	15.667315514855	0
3	5188	15.667315514855	0.1
3	5193	15.667947514855	0.002
3	5193	15.667947514855	0
3	5193	15.667947514855	0.002
3	5193	15.667947514855	0.002
3	5193	15.667947514855	0.002
3	5203	15.668517514855	0
3	5203	15.668517514855	0
3	5203	15.668517514855	0.002
3	5204	15.668517514855	0
3	5204	15.668517514855	0.1
3	5209	15.669149514855	0.002
3	5209	15.669149514855	0
3	5209	15.669149514855	0.002
3	5209	15.669149514855	0.002
3	5209	15.669149514855	0.002
3	6076	18.688865180803	0.005
3	6082	18.689497180803	0.002
3	6090	18.69020718082	0.005
3	6099	18.69083918082	0.002
3	6107	18.691749180839	0.005
3	6113	18.692381180839	0.002
3	6121	18.693331180859	0.005
3	6127	18.693963180859	0.002
3	6135	18.694413180873	0.005
3	6141	18.695045180873	0.002
3	6149	18.695875180891	0.005
3	6155	18.696507180891	0.002
3	6163	18.697457180911	0.005
3	6169	18.698089180911	0.002
3	6177	18.698619180926	0.005
3	6186	18.699251180926	0.002
3	7023	21.622619845544	0
3	7023	21.622619845544	0.01
3	7028	21.623251845544	0.002
3	7038	21.623721845544	0.01
3	7043	21.624353845544	0.002
3	7053	21.624983845544	0.01
3	7058	21.625615845544	0.002
3	7068	21.626285845544	0.01
3	7073	21.626917845544	0.002
3	7086	21.627867845544	0.01
3	7091	21.628499845544	0.002
3	7101	21.629289845544	0.01
3	7106	21.629921845544	0.002
3	7116	21.630551845544	0.01
3	7121	21.631183845544	0.002
3	7131	21.631593845544	0.01
3	7136	21.632225845544	0.002
3	8060	24.781682889676	0.01
3	8065	24.782314889676	0.002
3	8077	24.783124889726	0.01
3	8082	24.783756889726	0.002
3	8091	24.78410688976	0.01
3	8096	24.78473888976	0.002
3	8105	24.785228889798	0.01
3	8110	24.785860889798	0.002
3	8119	24.786810889853	0.01
3	8124	24.787442889853	0.002
3	8133	24.7881528899	0.01
3	8138	24.7887848899	0.002
3	8147	24.789134889934	0.01
3	8152	24.789766889934	0.002
3	8161	24.790156889969	0.01
3	8166	24.790788889969	0.002
4	0	0	0
4	0	0	0
4	0	0	0
4	0	0	0
4	0	0	0.002
4	2135	7.726613295685	0
4	2135	7.726613295685	0.01
4	2140	7.727245295685	0.002
4	2150	7.727675295672	0.01
4	2155	7.728307295672	0.002
4	2165	7.729017295655	0.01
4	2170	7.729649295655	0.002
4	2180	7.730459295638	0.01
4	2185	7.731091295638	0.002
4	2195	7.73186129562	0.01
4	2200	7.73249329562	0.002
4	2210	7.733443295601	0.01
4	2215	7.734075295601	0.002
4	2225	7.734465295588	0.01
4	2230	7.735097295588	0.002
4	2240	7.735607295574	0.01
4	2245	7.736239295574	0.002
4	2591	8.834665814546	0.01
4	2596	8.835297814546	0.002
4	2608	8.836047814546	0.01
4	2613	8.836679814546	0.002
4	2625	8.837209814546	0.01
4	2630	8.837841814546	0.002
4	2642	8.838511814546	0.01
4	2647	8.839143814546	0.002
4	2659	8.839613814546	0.01
4	2667	8.840245814546	0.002
4	2679	8.840655814546	0.01
4	2684	8.841287814546	0.002
4	2696	8.841957814546	0.01
4	2701	8.842589814546	0.002
4	2713	8.842939814546	0.01
4	2718	8.843571814546	0.002
4	3000	9.777241783682	0.01
4	3007	9.777873783682	0.002
4	3016	9.778683783682	0.01
4	3023	9.779315783682	0.002
4	3032	9.779905783682	0.01
4	3039	9.780537783682	0.002
4	3048	9.781027783682	0.01
4	3055	9.781659783682	0.002
4	3064	9.782249783682	0.01
4	3071	9.782881783682	0.002
4	3080	9.783231783682	0.01
4	3087	9.783863783682	0.002
4	3096	9.784613783682	0.01
4	3103	9.785245783682	0.002
4	3112	9.785815783682	0.01
4	3119	9.786447783682	0.002
4	3993	12.917880334285	0
4	3993	12.917880334285	0
4	3993	12.917880334285	0.002
4	3993	12.917880334285	0.002
4	3994	12.917880334285	0
4	3994	12.917880334285	0.1
4	3999	12.918512334285	0.002
4	3999	12.918512334285	0
4	3999	12.918512334285	0.002
4	3999	12.918512334285	0.002
4	3999	12.918512334285	0.002
4	4009	12.918902334285	0
4	4009	12.918902334285	0
4	4009	12.918902334285	0.002
4	4010	12.918902334285	0
4	4010	12.918902334285	0.1
4	4015	12.919534334285	0.002
4	4015	12.919534334285	0
4	4015	12.919534334285	0.002
4	4015	12.919534334285	0.002
4	4015	12.919534334285	0.002
4	4025	12.920384334285	0
4	4025	12.920384334285	0
4	4025	12.920384334285	0.002
4	4026	12.920384334285	0
4	4026	12.920384334285	0.1
4	4031	12.921016334285	0.002
4	4031	12.921016334285	0
4	4031	12.921016334285	0.002
4	4031	12.921016334285	0.002
4	4031	12.921016334285	0.002
4	4041	12.921946334285	0
4	4041	12.921946334285	0
4	4041	12.921946334285	0.002
4	4042	12.921946334285	0
4	4042	12.921946334285	0.1
4	4047	12.922578334285	0.002
4	4047	12.922578334285	0
4	4047	12.922578334285	0.002
4	4047	12.922578334285	0.002
4	4047	12.922578334285	0.002
4	4057	12.923408334285	0
4	4057	12.923408334285	0
4	4057	12.923408334285	0.002
4	4058	12.923408334285	0
4	4058	12.923408334285	0.1
4	4063	12.924040334285	0.002
4	4063	12.924040334285	0
4	4063	12.924040334285	0.002
4	4063	12.924040334285	0.002
4	4063	12.924040334285	0.002
4	4073	12.924390334285	0
4	4073	12.924390334285	0
4	4073	12.924390334285	0.002
4	4074	12.924390334285	0
4	4074	12.924390334285	0.1
4	4079	12.925022334285	0.002
4	4079	12.925022334285	0
4	4079	12.925022334285	0.002
4	4079	12.925022334285	0.002
4	4079	12.925022334285	0.002
4	4089	12.925992334285	0
4	4089	12.925992334285	0
4	4089	12.925992334285	0.002
4	4090	12.925992334285	0
4	4090	12.925992334285	0.1
4	4095	12.926624334285	0.002
4	4095	12.926624334285	0
4	4095	12.926624334285	0.002
4	4095	12.926624334285	0.002
4	4095	12.926624334285	0.002
4	4105	12.927454334285	0
4	4105	12.927454334285	0
4	4105	12.927454334285	0.002
4	4106	12.927454334285	0
4	4106	12.927454334285	0.1
4	4114	12.928086334285	0.002
4	4114	12.928086334285	0
4	4114	12.928086334285	0.002
4	4114	12.928086334285	0.002
4	4114	12.928086334285	0.002
4	4583	14.636998655426	0.005
4	4589	14.637630655426	0.002
4	4597	14.638180655434	0.005
4	4603	14.638812655434	0.002
4	4611	14.639382655442	0.005
4	4617	14.640014655442	0.002
4	4625	14.640944655452	0.005
4	4631	14.641576655452	0.002
4	4639	14.641966655459	0.005
4	4645	14.642598655459	0.002
4	4653	14.643148655467	0.005
4	4659	14.643780655467	0.002
4	4667	14.644370655475	0.005
4	4673	14.645002655475	0.002
4	4681	14.645692655484	0.005
4	4687	14.646324655484	0.002
4	4957	15.620565482251	0
4	4957	15.620565482251	0.01
4	4962	15.621197482251	0.002
4	4972	15.621587482251	0.01
4	4977	15.622219482251	0.002
4	4987	15.622889482251	0.01
4	4992	15.623521482251	0.002
4	5002	15.624251482251	0.01
4	5007	15.624883482251	0.002
4	5017	15.625593482251	0.01
4	5022	15.626225482251	0.002
4	5032	15.626935482251	0.01
4	5037	15.627567482251	0.002
4	5047	15.628497482251	0.01
4	5052	15.629129482251	0.002
4	5062	15.629679482251	0.01
4	5067	15.630311482251	0.002
4	5095	15.659524181983	0.01
4	5102	15.660156181983	0.002
4	5111	15.660646181983	0.01
4	5118	15.661278181983	0.002
4	5127	15.661828181983	0.01
4	5134	15.662460181983	0.002
4	5143	15.663090181983	0.01
4	5150	15.663722181983	0.002
4	5159	15.664172181983	0.01
4	5166	15.664804181983	0.002
4	5175	15.665714181983	0.01
4	5182	15.666346181983	0.002
4	5191	15.667316181983	0.01
4	5198	15.667948181983	0.002
4	5207	15.668518181983	0.01
4	5214	15.669150181983	0.002
4	6075	18.688864596756	0.01
4	6080	18.689496596756	0.002
4	6089	18.690206596794	0.01
4	6097	18.690838596794	0.002
4	6106	18.691748596837	0.01
4	6111	18.692380596837	0.002
4	6120	18.693330596882	0.01
4	6125	18.693962596882	0.002
4	6134	18.694412596912	0.01
4	6139	18.695044596912	0.002
4	6148	18.695874596953	0.01
4	6153	18.696506596953	0.002
4	6162	18.697456596998	0.01
4	6167	18.698088596998	0.002
4	6176	18.698618597031	0.01
4	6184	18.699250597031	0.002
4	7024	21.622619845544	0.01
4	7029	21.623251845544	0.002
4	7039	21.623721845544	0.01
4	7044	21.624353845544	0.002
4	7054	21.624983845544	0.01
4	7059	21.625615845544	0.002
4	7069	21.626285845544	0.01
4	7074	21.626917845544	0.002
4	7087	21.627867845544	0.01
4	7092	21.628499845544	0.002
4	7102	21.629289845544	0.01
4	7107	21.629921845544	0.002
4	7117	21.630551845544	0.01
4	7122	21.631183845544	0.002
4	7132	21.631593845544	0.01
4	7137	21.632225845544	0.002
4	8061	24.781683379056	0.005
4	8061	24.781683379056	0.005
4	8067	24.782315379056	0.002
4	8078	24.783125379084	0.005
4	8084	24.783757379084	0.002
4	8092	24.784107379104	0.005
4	8098	24.784739379104	0.002
4	8106	24.785229379126	0.005
4	8112	24.785861379126	0.002
4	8120	24.786811379158	0.005
4	8126	24.787443379158	0.002
4	8134	24.788153379185	0.005
4	8140	24.788785379185	0.002
4	8148	24.789135379204	0.005
4	8154	24.789767379204	0.002
4	8162	24.790157379225	0.005
4	8168	24.790789379225	0.002
5	0	0	0
5	0	0	0
5	0	0	2
5	4579	14.636997640575	3
5	4585	14.637629640575	2
5	4593	14.638179640575	3
5	4599	14.638811640575	2
5	4607	14.639381640575	3
5	4613	14.640013640575	2
5	4621	14.640943640575	3
5	4627	14.641575640575	2
5	4635	14.641965640575	3
5	4641	14.642597640575	2
5	4649	14.643147640575	3
5	4655	14.643779640575	2
5	4663	14.644369640575	3
5	4669	14.645001640575	2
5	4677	14.645691640575	3
5	4683	14.646323640575	2
5	8058	24.781682224929	3
5	8064	24.782314224929	2
5	8075	24.783124224929	3
5	8081	24.783756224929	2
5	8089	24.784106224929	3
5	8095	24.784738224929	2
5	8103	24.785228224929	3
5	8109	24.785860224929	2
5	8117	24.786810224929	3
5	8123	24.787442224929	2
5	8131	24.788152224929	3
5	8137	24.788784224929	2
5	8145	24.789134224929	3
5	8151	24.789766224929	2
5	8159	24.790156224929	3
5	8165	24.790788224929	2
6	0	0	0
6	0	0	0
6	0	0	0
6	0	0	0.002
6	2138	7.726614279428	0.005
6	2145	7.727246279428	0.002
6	2153	7.727676279428	0.005
6	2160	7.728308279428	0.002
6	2168	7.729018279428	0.005
6	2175	7.729650279428	0.002
6	2183	7.730460279428	0.005
6	2190	7.731092279428	0.002
6	2198	7.731862279428	0.005
6	2205	7.732494279428	0.002
6	2213	7.733444279428	0.005
6	2220	7.734076279428	0.002
6	2228	7.734466279428	0.005
6	2235	7.735098279428	0.002
6	2243	7.735608279428	0.005
6	2250	7.736240279428	0.002
6	2592	8.834666010731	0
6	2592	8.834666010731	0.01
6	2599	8.835298010731	0.002
6	2609	8.836048010762	0.01
6	2616	8.836680010762	0.002
6	2626	8.837210010787	0.01
6	2633	8.837842010787	0.002
6	2643	8.838512010816	0.01
6	2650	8.839144010816	0.002
6	2660	8.83961401084	0.01
6	2670	8.84024601084	0.002
6	2680	8.840656010863	0.01
6	2687	8.841288010863	0.002
6	2697	8.841958010891	0.01
6	2704	8.842590010891	0.002
6	2714	8.842940010913	0.01
6	2721	8.843572010913	0.002
6	2998	9.777241451099	0.01
6	3003	9.777873451099	0.002
6	3014	9.778683451094	0.01
6	3019	9.779315451094	0.002
6	3030	9.77990545109	0.01
6	3035	9.78053745109	0.002
6	3046	9.781027451087	0.01
6	3051	9.781659451087	0.002
6	3062	9.782249451083	0.01
6	3067	9.782881451083	0.002
6	3078	9.78323145108	0.01
6	3083	9.78386345108	0.002
6	3094	9.784613451076	0.01
6	3099	9.785245451076	0.002
6	3110	9.785815451073	0.01
6	3115	9.786447451073	0.002
6	3998	12.917881339973	0.005
6	3998	12.917881339973	0.005
6	4006	12.918513339973	0.002
6	4014	12.918903339977	0.005
6	4022	12.919535339977	0.002
6	4030	12.920385339983	0.005
6	4038	12.921017339983	0.002
6	4046	12.921947339989	0.005
6	4054	12.922579339989	0.002
6	4062	12.923409339995	0.005
6	4070	12.924041339995	0.002
6	4078	12.924391339999	0.005
6	4086	12.925023339999	0.002
6	4094	12.925993340006	0.005
6	4102	12.926625340006	0.002
6	4110	12.927455340011	0.005
6	4121	12.928087340011	0.002
6	4579	14.636997640575	0
6	4579	14.636997640575	0
6	4579	14.636997640575	0.002
6	4580	14.636997640575	0
6	4580	14.636997640575	0.1
6	4585	14.637629640575	0.002
6	4585	14.637629640575	0
6	4585	14.637629640575	0.002
6	4585	14.637629640575	0.002
6	4585	14.637629640575	0.002
6	4593	14.638179640575	0
6	4593	14.638179640575	0
6	4593	14.638179640575	0.002
6	4594	14.638179640575	0
6	4594	14.638179640575	0.1
6	4599	14.638811640575	0.002
6	4599	14.638811640575	0
6	4599	14.638811640575	0.002
6	4599	14.638811640575	0.002
6	4599	14.638811640575	0.002
6	4607	14.639381640575	0
6	4607	14.639381640575	0
6	4607	14.639381640575	0.002
6	4608	14.639381640575	0
6	4608	14.639381640575	0.1
6	4613	14.640013640575	0.002
6	4613	14.640013640575	0
6	4613	14.640013640575	0.002
6	4613	14.640013640575	0.002
6	4613	14.640013640575	0.002
6	4621	14.640943640575	0
6	4621	14.640943640575	0
6	4621	14.640943640575	0.002
6	4622	14.640943640575	0
6	4622	14.640943640575	0.1
6	4627	14.641575640575	0.002
6	4627	14.641575640575	0
6	4627	14.641575640575	0.002
6	4627	14.641575640575	0.002
6	4627	14.641575640575	0.002
6	4635	14.641965640575	0
6	4635	14.641965640575	0
6	4635	14.641965640575	0.002
6	4636	14.641965640575	0
6	4636	14.641965640575	0.1
6	4641	14.642597640575	0.002
6	4641	14.642597640575	0
6	4641	14.642597640575	0.002
6	4641	14.642597640575	0.002
6	4641	14.642597640575	0.002
6	4649	14.643147640575	0
6	4649	14.643147640575	0
6	4649	14.643147640575	0.002
6	4650	14.643147640575	0
6	4650	14.643147640575	0.1
6	4655	14.643779640575	0.002
6	4655	14.643779640575	0
6	4655	14.643779640575	0.002
6	4655	14.643779640575	0.002
6	4655	14.643779640575	0.002
6	4663	14.644369640575	0
6	4663	14.644369640575	0
6	4663	14.644369640575	0.002
6	4664	14.644369640575	0
6	4664	14.644369640575	0.1
6	4669	14.645001640575	0.002
6	4669	14.645001640575	0
6	4669	14.645001640575	0.002
6	4669	14.645001640575	0.002
6	4669	14.645001640575	0.002
6	4677	14.645691640575	0
6	4677	14.645691640575	0
6	4677	14.645691640575	0.002
6	4678	14.645691640575	0
6	4678	14.645691640575	0.1
6	4683	14.646323640575	0.002
6	4683	14.646323640575	0
6	4683	14.646323640575	0.002
6	4683	14.646323640575	0.002
6	4683	14.646323640575	0.002
6	4958	15.620565854172	0.005
6	4965	15.621197854172	0.002
6	4973	15.621587854202	0.005
6	4980	15.622219854202	0.002
6	4988	15.62288985424	0.005
6	4995	15.62352185424	0.002
6	5003	15.62425185428	0.005
6	5010	15.62488385428	0.002
6	5018	15.625593854319	0.005
6	5025	15.626225854319	0.002
6	5033	15.626935854358	0.005
6	5040	15.627567854358	0.002
6	5048	15.628497854403	0.005
6	5055	15.629129854403	0.002
6	5063	15.629679854438	0.005
6	5070	15.630311854438	0.002
6	5093	15.659523908944	0
6	5093	15.659523908944	0.01
6	5098	15.660155908944	0.002
6	5109	15.660645908968	0.01
6	5114	15.661277908968	0.002
6	5125	15.661827908993	0.01
6	5130	15.662459908993	0.002
6	5141	15.66308990902	0.01
6	5146	15.66372190902	0.002
6	5157	15.664171909043	0.01
6	5162	15.664803909043	0.002
6	5173	15.665713909076	0.01
6	5178	15.666345909076	0.002
6	5189	15.66731590911	0.01
6	5194	15.66794790911	0.002
6	5205	15.668517909136	0.01
6	5210	15.669149909136	0.002
6	6078	18.688865461008	0.005
6	6078	18.688865461008	0.005
6	6084	18.689497461008	0.002
6	6092	18.690207461008	0.005
6	6101	18.690839461008	0.002
6	6109	18.691749461008	0.005
6	6115	18.692381461008	0.002
6	6123	18.693331461008	0.005
6	6129	18.693963461008	0.002
6	6137	18.694413461008	0.005
6	6143	18.695045461008	0.002
6	6151	18.695875461008	0.005
6	6157	18.696507461008	0.002
6	6165	18.697457461008	0.005
6	6171	18.698089461008	0.002
6	6179	18.698619461008	0.005
6	6188	18.699251461008	0.002
6	7025	21.622620404143	0.005
6	7032	21.623252404143	0.002
6	7040	21.623722404179	0.005
6	7047	21.624354404179	0.002
6	7055	21.62498440422	0.005
6	7062	21.62561640422	0.002
6	7070	21.626286404263	0.005
6	7077	21.626918404263	0.002
6	7088	21.627868404315	0.005
6	7095	21.628500404315	0.002
6	7103	21.629290404361	0.005
6	7110	21.629922404361	0.002
6	7118	21.630552404403	0.005
6	7125	21.631184404403	0.002
6	7133	21.631594404437	0.005
6	7140	21.632226404437	0.002
6	8058	24.781682224929	0
6	8058	24.781682224929	0
6	8058	24.781682224929	0.002
6	8059	24.781682224929	0
6	8059	24.781682224929	0.1
6	8064	24.782314224929	0.002
6	8064	24.782314224929	0
6	8064	24.782314224929	0.002
6	8064	24.782314224929	0.002
6	8064	24.782314224929	0.002
6	8075	24.783124224929	0
6	8075	24.783124224929	0
6	8075	24.783124224929	0.002
6	8076	24.783124224929	0
6	8076	24.783124224929	0.1
6	8081	24.783756224929	0.002
6	8081	24.783756224929	0
6	8081	24.783756224929	0.002
6	8081	24.783756224929	0.002
6	8081	24.783756224929	0.002
6	8089	24.784106224929	0
6	8089	24.784106224929	0
6	8089	24.784106224929	0.002
6	8090	24.784106224929	0
6	8090	24.784106224929	0.1
6	8095	24.784738224929	0.002
6	8095	24.784738224929	0
6	8095	24.784738224929	0.002
6	8095	24.784738224929	0.002
6	8095	24.784738224929	0.002
6	8103	24.785228224929	0
6	8103	24.785228224929	0
6	8103	24.785228224929	0.002
6	8104	24.785228224929	0
6	8104	24.785228224929	0.1
6	8109	24.785860224929	0.002
6	8109	24.785860224929	0
6	8109	24.785860224929	0.002
6	8109	24.785860224929	0.002
6	8109	24.785860224929	0.002
6	8117	24.786810224929	0
6	8117	24.786810224929	0
6	8117	24.786810224929	0.002
6	8118	24.786810224929	0
6	8118	24.786810224929	0.1
6	8123	24.787442224929	0.002
6	8123	24.787442224929	0
6	8123	24.787442224929	0.002
6	8123	24.787442224929	0.002
6	8123	24.787442224929	0.002
6	8131	24.788152224929	0
6	8131	24.788152224929	0
6	8131	24.788152224929	0.002
6	8132	24.788152224929	0
6	8132	24.788152224929	0.1
6	8137	24.788784224929	0.002
6	8137	24.788784224929	0
6	8137	24.788784224929	0.002
6	8137	24.788784224929	0.002
6	8137	24.788784224929	0.002
6	8145	24.789134224929	0
6	8145	24.789134224929	0
6	8145	24.789134224929	0.002
6	8146	24.789134224929	0
6	8146	24.789134224929	0.1
6	8151	24.789766224929	0.002
6	8151	24.789766224929	0
6	8151	24.789766224929	0.002
6	8151	24.789766224929	0.002
6	8151	24.789766224929	0.002
6	8159	24.790156224929	0
6	8159	24.790156224929	0
6	8159	24.790156224929	0.002
6	8160	24.790156224929	0
6	8160	24.790156224929	0.1
6	8165	24.790788224929	0.002
6	8165	24.790788224929	0
6	8165	24.790788224929	0.002
6	8165	24.790788224929	0.002
6	8165	24.790788224929	0.002
7	0	0	0
7	0	0	0
7	0	0	2
7	2133	7.726612945172	3
7	2139	7.727244945172	2
7	2148	7.727674945172	3
7	2154	7.728306945172	2
7	2163	7.729016945172	3
7	2169	7.729648945172	2
7	2178	7.730458945172	3
7	2184	7.731090945172	2
7	2193	7.731860945172	3
7	2199	7.732492945172	2
7	2208	7.733442945172	3
7	2214	7.734074945172	2
7	2223	7.734464945172	3
7	2229	7.735096945172	2
7	2238	7.735606945172	3
7	2244	7.736238945172	2
7	6073	18.688864126752	3
7	6079	18.689496126752	2
7	6087	18.690206126752	3
7	6096	18.690838126752	2
7	6104	18.691748126752	3
7	6110	18.692380126752	2
7	6118	18.693330126752	3
7	6124	18.693962126752	2
7	6132	18.694412126752	3
7	6138	18.695044126752	2
7	6146	18.695874126752	3
7	6152	18.696506126752	2
7	6160	18.697456126752	3
7	6166	18.698088126752	2
7	6174	18.698618126752	3
7	6183	18.699250126752	2
8	0	0	0
8	0	0	0
8	0	0	0
8	0	0	0.002
8	2133	7.726612945172	0
8	2133	7.726612945172	0
8	2133	7.726612945172	0.002
8	2134	7.726612945172	0
8	2134	7.726612945172	0.1
8	2139	7.727244945172	0.002
8	2139	7.727244945172	0
8	2139	7.727244945172	0.002
8	2139	7.727244945172	0.002
8	2139	7.727244945172	0.002
8	2148	7.727674945172	0
8	2148	7.727674945172	0
8	2148	7.727674945172	0.002
8	2149	7.727674945172	0
8	2149	7.727674945172	0.1
8	2154	7.728306945172	0.002
8	2154	7.728306945172	0
8	2154	7.728306945172	0.002
8	2154	7.728306945172	0.002
8	2154	7.728306945172	0.002
8	2163	7.729016945172	0
8	2163	7.729016945172	0
8	2163	7.729016945172	0.002
8	2164	7.729016945172	0
8	2164	7.729016945172	0.1
8	2169	7.729648945172	0.002
8	2169	7.729648945172	0
8	2169	7.729648945172	0.002
8	2169	7.729648945172	0.002
8	2169	7.729648945172	0.002
8	2178	7.730458945172	0
8	2178	7.730458945172	0
8	2178	7.730458945172	0.002
8	2179	7.730458945172	0
8	2179	7.730458945172	0.1
8	2184	7.731090945172	0.002
8	2184	7.731090945172	0
8	2184	7.731090945172	0.002
8	2184	7.731090945172	0.002
8	2184	7.731090945172	0.002
8	2193	7.731860945172	0
8	2193	7.731860945172	0
8	2193	7.731860945172	0.002
8	2194	7.731860945172	0
8	2194	7.731860945172	0.1
8	2199	7.732492945172	0.002
8	2199	7.732492945172	0
8	2199	7.732492945172	0.002
8	2199	7.732492945172	0.002
8	2199	7.732492945172	0.002
8	2208	7.733442945172	0
8	2208	7.733442945172	0
8	2208	7.733442945172	0.002
8	2209	7.733442945172	0
8	2209	7.733442945172	0.1
8	2214	7.734074945172	0.002
8	2214	7.734074945172	0
8	2214	7.734074945172	0.002
8	2214	7.734074945172	0.002
8	2214	7.734074945172	0.002
8	2223	7.734464945172	0
8	2223	7.734464945172	0
8	2223	7.734464945172	0.002
8	2224	7.734464945172	0
8	2224	7.734464945172	0.1
8	2229	7.735096945172	0.002
8	2229	7.735096945172	0
8	2229	7.735096945172	0.002
8	2229	7.735096945172	0.002
8	2229	7.735096945172	0.002
8	2238	7.735606945172	0
8	2238	7.735606945172	0
8	2238	7.735606945172	0.002
8	2239	7.735606945172	0
8	2239	7.735606945172	0.1
8	2244	7.736238945172	0.002
8	2244	7.736238945172	0
8	2244	7.736238945172	0.002
8	2244	7.736238945172	0.002
8	2244	7.736238945172	0.002
8	2593	8.834666010731	0
8	2593	8.834666010731	0.01
8	2600	8.835298010731	0.002
8	2610	8.836048010762	0.01
8	2617	8.836680010762	0.002
8	2627	8.837210010787	0.01
8	2634	8.837842010787	0.002
8	2644	8.838512010816	0.01
8	2651	8.839144010816	0.002
8	2661	8.83961401084	0.01
8	2671	8.84024601084	0.002
8	2681	8.840656010863	0.01
8	2688	8.841288010863	0.002
8	2698	8.841958010891	0.01
8	2705	8.842590010891	0.002
8	2715	8.842940010913	0.01
8	2722	8.843572010913	0.002
8	3001	9.777242117574	0.005
8	3001	9.777242117574	0.005
8	3009	9.777874117574	0.002
8	3017	9.778684117572	0.005
8	3025	9.779316117572	0.002
8	3033	9.779906117571	0.005
8	3041	9.780538117571	0.002
8	3049	9.78102811757	0.005
8	3057	9.78166011757	0.002
8	3065	9.782250117568	0.005
8	3073	9.782882117568	0.002
8	3081	9.783232117567	0.005
8	3089	9.783864117567	0.002
8	3097	9.784614117566	0.005
8	3105	9.785246117566	0.002
8	3113	9.785816117565	0.005
8	3121	9.786448117565	0.002
8	3995	12.91788068255	0
8	3995	12.91788068255	0.01
8	4000	12.91851268255	0.002
8	4011	12.918902682562	0.01
8	4016	12.919534682562	0.002
8	4027	12.920384682579	0.01
8	4032	12.921016682579	0.002
8	4043	12.921946682597	0.01
8	4048	12.922578682597	0.002
8	4059	12.923408682614	0.01
8	4064	12.924040682614	0.002
8	4075	12.924390682625	0.01
8	4080	12.925022682625	0.002
8	4091	12.925992682644	0.01
8	4096	12.926624682644	0.002
8	4107	12.92745468266	0.01
8	4115	12.92808668266	0.002
8	4584	14.636998974831	0.005
8	4584	14.636998974831	0.005
8	4590	14.637630974831	0.002
8	4598	14.638180974831	0.005
8	4604	14.638812974831	0.002
8	4612	14.639382974831	0.005
8	4618	14.640014974831	0.002
8	4626	14.640944974831	0.005
8	4632	14.641576974831	0.002
8	4640	14.641966974831	0.005
8	4646	14.642598974831	0.002
8	4654	14.643148974831	0.005
8	4660	14.643780974831	0.002
8	4668	14.644370974831	0.005
8	4674	14.645002974831	0.002
8	4682	14.645692974831	0.005
8	4688	14.646324974831	0.002
8	4959	15.620565854172	0.005
8	4966	15.621197854172	0.002
8	4974	15.621587854202	0.005
8	4981	15.622219854202	0.002
8	4989	15.62288985424	0.005
8	4996	15.62352185424	0.002
8	5004	15.62425185428	0.005
8	5011	15.62488385428	0.002
8	5019	15.625593854319	0.005
8	5026	15.626225854319	0.002
8	5034	15.626935854358	0.005
8	5041	15.627567854358	0.002
8	5049	15.628497854403	0.005
8	5056	15.629129854403	0.002
8	5064	15.629679854438	0.005
8	5071	15.630311854438	0.002
8	5096	15.659524537316	0.005
8	5104	15.660156537316	0.002
8	5112	15.660646537325	0.005
8	5120	15.661278537325	0.002
8	5128	15.661828537335	0.005
8	5136	15.662460537335	0.002
8	5144	15.663090537345	0.005
8	5152	15.663722537345	0.002
8	5160	15.664172537354	0.005
8	5168	15.664804537354	0.002
8	5176	15.665714537367	0.005
8	5184	15.666346537367	0.002
8	5192	15.66731653738	0.005
8	5200	15.66794853738	0.002
8	5208	15.66851853739	0.005
8	5216	15.66915053739	0.002
8	6073	18.688864126752	0
8	6073	18.688864126752	0
8	6073	18.688864126752	0.002
8	6074	18.688864126752	0
8	6074	18.688864126752	0.1
8	6079	18.689496126752	0.002
8	6079	18.689496126752	0
8	6079	18.689496126752	0.002
8	6079	18.689496126752	0.002
8	6079	18.689496126752	0.002
8	6087	18.690206126752	0
8	6087	18.690206126752	0
8	6087	18.690206126752	0.002
8	6088	18.690206126752	0
8	6088	18.690206126752	0.1
8	6096	18.690838126752	0.002
8	6096	18.690838126752	0
8	6096	18.690838126752	0.002
8	6096	18.690838126752	0.002
8	6096	18.690838126752	0.002
8	6104	18.691748126752	0
8	6104	18.691748126752	0
8	6104	18.691748126752	0.002
8	6105	18.691748126752	0
8	6105	18.691748126752	0.1
8	6110	18.692380126752	0.002
8	6110	18.692380126752	0
8	6110	18.692380126752	0.002
8	6110	18.692380126752	0.002
8	6110	18.692380126752	0.002
8	6118	18.693330126752	0
8	6118	18.693330126752	0
8	6118	18.693330126752	0.002
8	6119	18.693330126752	0
8	6119	18.693330126752	0.1
8	6124	18.693962126752	0.002
8	6124	18.693962126752	0
8	6124	18.693962126752	0.002
8	6124	18.693962126752	0.002
8	6124	18.693962126752	0.002
8	6132	18.694412126752	0
8	6132	18.694412126752	0
8	6132	18.694412126752	0.002
8	6133	18.694412126752	0
8	6133	18.694412126752	0.1
8	6138	18.695044126752	0.002
8	6138	18.695044126752	0
8	6138	18.695044126752	0.002
8	6138	18.695044126752	0.002
8	6138	18.695044126752	0.002
8	6146	18.695874126752	0
8	6146	18.695874126752	0
8	6146	18.695874126752	0.002
8	6147	18.695874126752	0
8	6147	18.695874126752	0.1
8	6152	18.696506126752	0.002
8	6152	18.696506126752	0
8	6152	18.696506126752	0.002
8	6152	18.696506126752	0.002
8	6152	18.696506126752	0.002
8	6160	18.697456126752	0
8	6160	18.697456126752	0
8	6160	18.697456126752	0.002
8	6161	18.697456126752	0
8	6161	18.697456126752	0.1
8	6166	18.698088126752	0.002
8	6166	18.698088126752	0
8	6166	18.698088126752	0.002
8	6166	18.698088126752	0.002
8	6166	18.698088126752	0.002
8	6174	18.698618126752	0
8	6174	18.698618126752	0
8	6174	18.698618126752	0.002
8	6175	18.698618126752	0
8	6175	18.698618126752	0.1
8	6183	18.699250126752	0.002
8	6183	18.699250126752	0
8	6183	18.699250126752	0.002
8	6183	18.699250126752	0.002
8	6183	18.699250126752	0.002
8	7026	21.622620404143	0.005
8	7033	21.623252404143	0.002
8	7041	21.623722404179	0.005
8	7048	21.624354404179	0.002
8	7056	21.62498440422	0.005
8	7063	21.62561640422	0.002
8	7071	21.626286404263	0.005
8	7078	21.626918404263	0.002
8	7089	21.627868404315	0.005
8	7096	21.628500404315	0.002
8	7104	21.629290404361	0.005
8	7111	21.629922404361	0.002
8	7119	21.630552404403	0.005
8	7126	21.631184404403	0.002
8	7134	21.631594404437	0.005
8	7141	21.632226404437	0.002
8	8063	24.781683559185	0.005
8	8069	24.782315559185	0.002
8	8080	24.783125559185	0.005
8	8086	24.783757559185	0.002
8	8094	24.784107559185	0.005
8	8100	24.784739559185	0.002
8	8108	24.785229559185	0.005
8	8114	24.785861559185	0.002
8	8122	24.786811559185	0.005
8	8128	24.787443559185	0.002
8	8136	24.788153559185	0.005
8	8142	24.788785559185	0.002
8	8150	24.789135559185	0.005
8	8156	24.789767559185	0.002
8	8164	24.790157559185	0.005
8	8170	24.790789559185	0.002
9	0	0	0
9	0	0	0
9	0	0	2
9	2588	8.834665213205	3
9	2594	8.835297213205	2
9	2605	8.836047213205	3
9	2611	8.836679213205	2
9	2622	8.837209213205	3
9	2628	8.837841213205	2
9	2639	8.838511213205	3
9	2645	8.839143213205	2
9	2656	8.839613213205	3
9	2665	8.840245213205	2
9	2676	8.840655213205	3
9	2682	8.841287213205	2
9	2693	8.841957213205	3
9	2699	8.842589213205	2
9	2710	8.842939213205	3
9	2716	8.843571213205	2
9	4954	15.62056488091	3
9	4960	15.62119688091	2
9	4969	15.62158688091	3
9	4975	15.62221888091	2
9	4984	15.62288888091	3
9	4990	15.62352088091	2
9	4999	15.62425088091	3
9	5005	15.62488288091	2
9	5014	15.62559288091	3
9	5020	15.62622488091	2
9	5029	15.62693488091	3
9	5035	15.62756688091	2
9	5044	15.62849688091	3
9	5050	15.62912888091	2
9	5059	15.62967888091	3
9	5065	15.63031088091	2
9	7021	21.622619244203	3
9	7027	21.623251244203	2
9	7036	21.623721244203	3
9	7042	21.624353244203	2
9	7051	21.624983244203	3
9	7057	21.625615244203	2
9	7066	21.626285244203	3
9	7072	21.626917244203	2
9	7084	21.627867244203	3
9	7090	21.628499244203	2
9	7099	21.629289244203	3
9	7105	21.629921244203	2
9	7114	21.630551244203	3
9	7120	21.631183244203	2
9	7129	21.631593244203	3
9	7135	21.632225244203	2
10	0	0	0
10	0	0	0
10	0	0	0
10	0	0	0.002
10	2136	7.726613719284	0
10	2136	7.726613719284	0.01
10	2142	7.727245719284	0.002
10	2151	7.727675719306	0.01
10	2157	7.728307719306	0.002
10	2166	7.729017719333	0.01
10	2172	7.729649719333	0.002
10	2181	7.730459719362	0.01
10	2187	7.731091719362	0.002
10	2196	7.731861719391	0.01
10	2202	7.732493719391	0.002
10	2211	7.733443719423	0.01
10	2217	7.734075719423	0.002
10	2226	7.734465719443	0.01
10	2232	7.735097719443	0.002
10	2241	7.735607719467	0.01
10	2247	7.736239719467	0.002
10	2588	8.834665213205	0
10	2588	8.834665213205	0
10	2588	8.834665213205	0.002
10	2588	8.834665213205	0.002
10	2589	8.834665213205	0
10	2589	8.834665213205	0.1
10	2594	8.835297213205	0.002
10	2594	8.835297213205	0
10	2594	8.835297213205	0.002
10	2594	8.835297213205	0.002
10	2594	8.835297213205	0.002
10	2605	8.836047213205	0
10	2605	8.836047213205	0
10	2605	8.836047213205	0.002
10	2606	8.836047213205	0
10	2606	8.836047213205	0.1
10	2611	8.836679213205	0.002
10	2611	8.836679213205	0
10	2611	8.836679213205	0.002
10	2611	8.836679213205	0.002
10	2611	8.836679213205	0.002
10	2622	8.837209213205	0
10	2622	8.837209213205	0
10	2622	8.837209213205	0.002
10	2623	8.837209213205	0
10	2623	8.837209213205	0.1
10	2628	8.837841213205	0.002
10	2628	8.837841213205	0
10	2628	8.837841213205	0.002
10	2628	8.837841213205	0.002
10	2628	8.837841213205	0.002
10	2639	8.838511213205	0
10	2639	8.838511213205	0
10	2639	8.838511213205	0.002
10	2640	8.838511213205	0
10	2640	8.838511213205	0.1
10	2645	8.839143213205	0.002
10	2645	8.839143213205	0
10	2645	8.839143213205	0.002
10	2645	8.839143213205	0.002
10	2645	8.839143213205	0.002
10	2656	8.839613213205	0
10	2656	8.839613213205	0
10	2656	8.839613213205	0.002
10	2657	8.839613213205	0
10	2657	8.839613213205	0.1
10	2665	8.840245213205	0.002
10	2665	8.840245213205	0
10	2665	8.840245213205	0.002
10	2665	8.840245213205	0.002
10	2665	8.840245213205	0.002
10	2676	8.840655213205	0
10	2676	8.840655213205	0
10	2676	8.840655213205	0.002
10	2677	8.840655213205	0
10	2677	8.840655213205	0.1
10	2682	8.841287213205	0.002
10	2682	8.841287213205	0
10	2682	8.841287213205	0.002
10	2682	8.841287213205	0.002
10	2682	8.841287213205	0.002
10	2693	8.841957213205	0
10	2693	8.841957213205	0
10	2693	8.841957213205	0.002
10	2694	8.841957213205	0
10	2694	8.841957213205	0.1
10	2699	8.842589213205	0.002
10	2699	8.842589213205	0
10	2699	8.842589213205	0.002
10	2699	8.842589213205	0.002
10	2699	8.842589213205	0.002
10	2710	8.842939213205	0
10	2710	8.842939213205	0
10	2710	8.842939213205	0.002
10	2711	8.842939213205	0
10	2711	8.842939213205	0.1
10	2716	8.843571213205	0.002
10	2716	8.843571213205	0
10	2716	8.843571213205	0.002
10	2716	8.843571213205	0.002
10	2716	8.843571213205	0.002
10	2999	9.777241717895	0
10	2999	9.777241717895	0.01
10	3005	9.777873717895	0.002
10	3015	9.778683717895	0.01
10	3021	9.779315717895	0.002
10	3031	9.779905717895	0.01
10	3037	9.780537717895	0.002
10	3047	9.781027717895	0.01
10	3053	9.781659717895	0.002
10	3063	9.782249717895	0.01
10	3069	9.782881717895	0.002
10	3079	9.783231717895	0.01
10	3085	9.783863717895	0.002
10	3095	9.784613717895	0.01
10	3101	9.785245717895	0.002
10	3111	9.785815717895	0.01
10	3117	9.786447717895	0.002
10	3996	12.917880935626	0.01
10	4002	12.918512935626	0.002
10	4012	12.918902935626	0.01
10	4018	12.919534935626	0.002
10	4028	12.920384935626	0.01
10	4034	12.921016935626	0.002
10	4044	12.921946935626	0.01
10	4050	12.922578935626	0.002
10	4060	12.923408935626	0.01
10	4066	12.924040935626	0.002
10	4076	12.924390935626	0.01
10	4082	12.925022935626	0.002
10	4092	12.925992935626	0.01
10	4098	12.926624935626	0.002
10	4108	12.927454935626	0.01
10	4117	12.928086935626	0.002
10	4582	14.636998585557	0.005
10	4582	14.636998585557	0.005
10	4588	14.637630585557	0.002
10	4596	14.63818058559	0.005
10	4602	14.63881258559	0.002
10	4610	14.639382585624	0.005
10	4616	14.640014585624	0.002
10	4624	14.640944585669	0.005
10	4630	14.641576585669	0.002
10	4638	14.641966585698	0.005
10	4644	14.642598585698	0.002
10	4652	14.643148585731	0.005
10	4658	14.643780585731	0.002
10	4666	14.644370585766	0.005
10	4672	14.645002585766	0.002
10	4680	14.645692585803	0.005
10	4686	14.646324585803	0.002
[...]
31	8131	24.788152224929	-0.050578656449858
31	8137	24.788784224929	-0.050641856449858
31	8145	24.789134224929	-0.050642556449858
31	8151	24.789766224929	-0.050705756449858
31	8159	24.790156224929	-0.050706536449858
31	8165	24.790788224929	-0.050769736449858
32	2141	7.727245295685	67
32	2156	7.728307295672	67
32	2171	7.729649295655	67
32	2186	7.731091295638	67
32	2201	7.73249329562	67
32	2216	7.734075295601	67
32	2231	7.735097295588	67
32	2246	7.736239295574	67
32	2598	8.835297814546	67
32	2615	8.836679814546	67
32	2632	8.837841814546	67
32	2649	8.839143814546	67
32	2669	8.840245814546	67
32	2686	8.841287814546	67
32	2703	8.842589814546	67
32	2720	8.843571814546	67
32	3008	9.777873783682	67
32	3024	9.779315783682	67
32	3040	9.780537783682	67
32	3056	9.781659783682	67
32	3072	9.782881783682	67
32	3088	9.783863783682	67
32	3104	9.785245783682	67
32	3120	9.786447783682	67
32	4964	15.621197482251	67
32	4979	15.622219482251	67
32	4994	15.623521482251	67
32	5009	15.624883482251	67
32	5024	15.626225482251	67
32	5039	15.627567482251	67
32	5054	15.629129482251	67
32	5069	15.630311482251	67
32	5103	15.660156181983	67
32	5119	15.661278181983	67
32	5135	15.662460181983	67
32	5151	15.663722181983	67
32	5167	15.664804181983	67
32	5183	15.666346181983	67
32	5199	15.667948181983	67
32	5215	15.669150181983	67
32	6081	18.689496596756	67
32	6098	18.690838596794	67
32	6112	18.692380596837	67
32	6126	18.693962596882	67
32	6140	18.695044596912	67
32	6154	18.696506596953	67
32	6168	18.698088596998	67
32	6185	18.699250597031	67
32	7031	21.623251845544	67
32	7046	21.624353845544	67
32	7061	21.625615845544	67
32	7076	21.626917845544	67
32	7094	21.628499845544	67
32	7109	21.629921845544	67
32	7124	21.631183845544	67
32	7139	21.632225845544	67
33	2143	7.727245719284	67
33	2158	7.728307719306	67
33	2173	7.729649719333	67
33	2188	7.731091719362	67
33	2203	7.732493719391	67
33	2218	7.734075719423	67
33	2233	7.735097719443	67
33	2248	7.736239719467	67
33	3006	9.777873717895	67
33	3022	9.779315717895	67
33	3038	9.780537717895	67
33	3054	9.781659717895	67
33	3070	9.782881717895	67
33	3086	9.783863717895	67
33	3102	9.785245717895	67
33	3118	9.786447717895	67
33	4003	12.918512935626	67
33	4019	12.919534935626	67
33	4035	12.921016935626	67
33	4051	12.922578935626	67
33	4067	12.924040935626	67
33	4083	12.925022935626	67
33	4099	12.926624935626	67
33	4118	12.928086935626	67
33	5101	15.660156116196	67
33	5117	15.661278116196	67
33	5133	15.662460116196	67
33	5149	15.663722116196	67
33	5165	15.664804116196	67
33	5181	15.666346116196	67
33	5197	15.667948116196	67
33	5213	15.669150116196	67
34	2251	7.736538945172	67
34	6190	18.699550126752	67
35	2586	8.834415213205	67
35	4952	15.62021488091	67
35	7019	21.622549244203	67
36	2586	8.834415213205	1
36	2586	8.834415213205	0
36	4952	15.62021488091	1
36	4952	15.62021488091	0
36	7019	21.622549244203	1
36	7019	21.622549244203	0
37	2586	8.834415213205	67
37	4952	15.62021488091	67
37	7019	21.622549244203	67
38	2586	8.834415213205	0
38	4952	15.62021488091	0
38	7019	21.622549244203	0
39	2588	8.834665213205	1
39	2589	8.834665213205	2
39	2594	8.835297213205	1
39	2594	8.835297213205	0
39	2605	8.836047213205	1
39	2606	8.836047213205	2
39	2611	8.836679213205	1
39	2611	8.836679213205	0
39	2622	8.837209213205	1
39	2623	8.837209213205	2
39	2628	8.837841213205	1
39	2628	8.837841213205	0
39	2639	8.838511213205	1
39	2640	8.838511213205	2
39	2645	8.839143213205	1
39	2645	8.839143213205	0
39	2656	8.839613213205	1
39	2657	8.839613213205	2
39	2665	8.840245213205	1
39	2665	8.840245213205	0
39	2676	8.840655213205	1
39	2677	8.840655213205	2
39	2682	8.841287213205	1
39	2682	8.841287213205	0
39	2693	8.841957213205	1
39	2694	8.841957213205	2
39	2699	8.842589213205	1
39	2699	8.842589213205	0
39	2710	8.842939213205	1
39	2711	8.842939213205	2
39	2716	8.843571213205	1
39	2716	8.843571213205	0
39	4954	15.62056488091	1
39	4955	15.62056488091	2
39	4960	15.62119688091	1
39	4960	15.62119688091	0
39	4969	15.62158688091	1
39	4970	15.62158688091	2
39	4975	15.62221888091	1
39	4975	15.62221888091	0
39	4984	15.62288888091	1
39	4985	15.62288888091	2
39	4990	15.62352088091	1
39	4990	15.62352088091	0
39	4999	15.62425088091	1
39	5000	15.62425088091	2
39	5005	15.62488288091	1
39	5005	15.62488288091	0
39	5014	15.62559288091	1
39	5015	15.62559288091	2
39	5020	15.62622488091	1
39	5020	15.62622488091	0
39	5029	15.62693488091	1
39	5030	15.62693488091	2
39	5035	15.62756688091	1
39	5035	15.62756688091	0
39	5044	15.62849688091	1
39	5045	15.62849688091	2
39	5050	15.62912888091	1
39	5050	15.62912888091	0
39	5059	15.62967888091	1
39	5060	15.62967888091	2
39	5065	15.63031088091	1
39	5065	15.63031088091	0
39	7021	21.622619244203	1
39	7022	21.622619244203	2
39	7027	21.623251244203	1
39	7027	21.623251244203	0
39	7036	21.623721244203	1
39	7037	21.623721244203	2
39	7042	21.624353244203	1
39	7042	21.624353244203	0
39	7051	21.624983244203	1
39	7052	21.624983244203	2
39	7057	21.625615244203	1
39	7057	21.625615244203	0
39	7066	21.626285244203	1
39	7067	21.626285244203	2
39	7072	21.626917244203	1
39	7072	21.626917244203	0
39	7084	21.627867244203	1
39	7085	21.627867244203	2
39	7090	21.628499244203	1
39	7090	21.628499244203	0
39	7099	21.629289244203	1
39	7100	21.629289244203	2
39	7105	21.629921244203	1
39	7105	21.629921244203	0
39	7114	21.630551244203	1
39	7115	21.630551244203	2
39	7120	21.631183244203	1
39	7120	21.631183244203	0
39	7129	21.631593244203	1
39	7130	21.631593244203	2
39	7135	21.632225244203	1
39	7135	21.632225244203	0
40	2597	8.835297814546	67
40	2614	8.836679814546	67
40	2631	8.837841814546	67
40	2648	8.839143814546	67
40	2668	8.840245814546	67
40	2685	8.841287814546	67
40	2702	8.842589814546	67
40	2719	8.843571814546	67
40	4005	12.918513001413	67
40	4021	12.919535001413	67
40	4037	12.921017001413	67
40	4053	12.922579001413	67
40	4069	12.924041001413	67
40	4085	12.925023001413	67
40	4101	12.926625001413	67
40	4120	12.928087001413	67
40	4587	14.637630014477	67
40	4601	14.638812014498	67
40	4615	14.64001401452	67
40	4629	14.641576014548	67
40	4643	14.642598014566	67
40	4657	14.643780014588	67
40	4671	14.64500201461	67
40	4685	14.646324014634	67
40	4963	15.621197482251	67
40	4978	15.622219482251	67
40	4993	15.623521482251	67
40	5008	15.624883482251	67
40	5023	15.626225482251	67
40	5038	15.627567482251	67
40	5053	15.629129482251	67
40	5068	15.630311482251	67
40	7030	21.623251845544	67
40	7045	21.624353845544	67
40	7060	21.625615845544	67
40	7075	21.626917845544	67
40	7093	21.628499845544	67
40	7108	21.629921845544	67
40	7123	21.631183845544	67
40	7138	21.632225845544	67
40	8066	24.782314889676	67
40	8083	24.783756889726	67
40	8097	24.78473888976	67
40	8111	24.785860889798	67
40	8125	24.787442889853	67
40	8139	24.7887848899	67
40	8153	24.789766889934	67
40	8167	24.790788889969	67
41	2601	8.835298010731	67
41	2618	8.836680010762	67
41	2635	8.837842010787	67
41	2652	8.839144010816	67
41	2672	8.84024601084	67
41	2689	8.841288010863	67
41	2706	8.842590010891	67
41	2723	8.843572010913	67
41	3004	9.777873451099	67
41	3020	9.779315451094	67
41	3036	9.78053745109	67
41	3052	9.781659451087	67
41	3068	9.782881451083	67
41	3084	9.78386345108	67
41	3100	9.785245451076	67
41	3116	9.786447451073	67
41	5099	15.660155908944	67
41	5115	15.661277908968	67
41	5131	15.662459908993	67
41	5147	15.66372190902	67
41	5163	15.664803909043	67
41	5179	15.666345909076	67
41	5195	15.66794790911	67
41	5211	15.669149909136	67
42	2602	8.835298010731	67
42	2619	8.836680010762	67
42	2636	8.837842010787	67
42	2653	8.839144010816	67
42	2673	8.84024601084	67
42	2690	8.841288010863	67
42	2707	8.842590010891	67
42	2724	8.843572010913	67
42	4001	12.91851268255	67
42	4017	12.919534682562	67
42	4033	12.921016682579	67
42	4049	12.922578682597	67
42	4065	12.924040682614	67
42	4081	12.925022682625	67
42	4097	12.926624682644	67
42	4116	12.92808668266	67
43	2725	8.843871213205	67
43	5072	15.63061088091	67
43	7142	21.632525244203	67
44	2994	9.776651116554	67
44	5089	15.659133514855	67
45	2994	9.776651116554	1
45	2994	9.776651116554	0
45	5089	15.659133514855	1
45	5089	15.659133514855	0
46	2994	9.776651116554	67
46	5089	15.659133514855	67
47	2994	9.776651116554	0
47	5089	15.659133514855	0
48	2996	9.777241116554	1
48	2997	9.777241116554	2
48	3002	9.777873116554	1
48	3002	9.777873116554	0
48	3012	9.778683116554	1
48	3013	9.778683116554	2
48	3018	9.779315116554	1
48	3018	9.779315116554	0
48	3028	9.779905116554	1
48	3029	9.779905116554	2
48	3034	9.780537116554	1
48	3034	9.780537116554	0
48	3044	9.781027116554	1
48	3045	9.781027116554	2
48	3050	9.781659116554	1
48	3050	9.781659116554	0
48	3060	9.782249116554	1
48	3061	9.782249116554	2
48	3066	9.782881116554	1
48	3066	9.782881116554	0
48	3076	9.783231116554	1
48	3077	9.783231116554	2
48	3082	9.783863116554	1
48	3082	9.783863116554	0
48	3092	9.784613116554	1
48	3093	9.784613116554	2
48	3098	9.785245116554	1
48	3098	9.785245116554	0
48	3108	9.785815116554	1
48	3109	9.785815116554	2
48	3114	9.786447116554	1
48	3114	9.786447116554	0
48	5091	15.659523514855	1
48	5092	15.659523514855	2
48	5097	15.660155514855	1
48	5097	15.660155514855	0
48	5107	15.660645514855	1
48	5108	15.660645514855	2
48	5113	15.661277514855	1
48	5113	15.661277514855	0
48	5123	15.661827514855	1
48	5124	15.661827514855	2
48	5129	15.662459514855	1
48	5129	15.662459514855	0
48	5139	15.663089514855	1
48	5140	15.663089514855	2
48	5145	15.663721514855	1
48	5145	15.663721514855	0
48	5155	15.664171514855	1
48	5156	15.664171514855	2
48	5161	15.664803514855	1
48	5161	15.664803514855	0
48	5171	15.665713514855	1
48	5172	15.665713514855	2
48	5177	15.666345514855	1
48	5177	15.666345514855	0
48	5187	15.667315514855	1
48	5188	15.667315514855	2
48	5193	15.667947514855	1
48	5193	15.667947514855	0
48	5203	15.668517514855	1
48	5204	15.668517514855	2
48	5209	15.669149514855	1
48	5209	15.669149514855	0
49	3122	9.786747116554	67
49	5217	15.669449514855	67
50	3991	12.917250334285	67
51	3991	12.917250334285	1
51	3991	12.917250334285	0
52	3991	12.917250334285	67
53	3991	12.917250334285	0
54	3993	12.917880334285	1
54	3994	12.917880334285	2
54	3999	12.918512334285	1
54	3999	12.918512334285	0
54	4009	12.918902334285	1
54	4010	12.918902334285	2
54	4015	12.919534334285	1
54	4015	12.919534334285	0
54	4025	12.920384334285	1
54	4026	12.920384334285	2
54	4031	12.921016334285	1
54	4031	12.921016334285	0
54	4041	12.921946334285	1
54	4042	12.921946334285	2
54	4047	12.922578334285	1
54	4047	12.922578334285	0
54	4057	12.923408334285	1
54	4058	12.923408334285	2
54	4063	12.924040334285	1
54	4063	12.924040334285	0
54	4073	12.924390334285	1
54	4074	12.924390334285	2
54	4079	12.925022334285	1
54	4079	12.925022334285	0
54	4089	12.925992334285	1
54	4090	12.925992334285	2
54	4095	12.926624334285	1
54	4095	12.926624334285	0
54	4105	12.927454334285	1
54	4106	12.927454334285	2
54	4114	12.928086334285	1
54	4114	12.928086334285	0
55	4122	12.928386334285	67
56	4577	14.636627640575	67
56	8056	24.781252224929	67
57	4577	14.636627640575	1
57	4577	14.636627640575	0
57	8056	24.781252224929	1
57	8056	24.781252224929	0
58	4577	14.636627640575	67
58	8056	24.781252224929	67
59	4577	14.636627640575	0
59	8056	24.781252224929	0
60	4579	14.636997640575	1
60	4580	14.636997640575	2
60	4585	14.637629640575	1
60	4585	14.637629640575	0
60	4593	14.638179640575	1
60	4594	14.638179640575	2
60	4599	14.638811640575	1
60	4599	14.638811640575	0
60	4607	14.639381640575	1
60	4608	14.639381640575	2
60	4613	14.640013640575	1
60	4613	14.640013640575	0
60	4621	14.640943640575	1
60	4622	14.640943640575	2
60	4627	14.641575640575	1
60	4627	14.641575640575	0
60	4635	14.641965640575	1
60	4636	14.641965640575	2
60	4641	14.642597640575	1
60	4641	14.642597640575	0
60	4649	14.643147640575	1
60	4650	14.643147640575	2
60	4655	14.643779640575	1
60	4655	14.643779640575	0
60	4663	14.644369640575	1
60	4664	14.644369640575	2
60	4669	14.645001640575	1
60	4669	14.645001640575	0
60	4677	14.645691640575	1
60	4678	14.645691640575	2
60	4683	14.646323640575	1
60	4683	14.646323640575	0
60	8058	24.781682224929	1
60	8059	24.781682224929	2
60	8064	24.782314224929	1
60	8064	24.782314224929	0
60	8075	24.783124224929	1
60	8076	24.783124224929	2
60	8081	24.783756224929	1
60	8081	24.783756224929	0
60	8089	24.784106224929	1
60	8090	24.784106224929	2
60	8095	24.784738224929	1
60	8095	24.784738224929	0
60	8103	24.785228224929	1
60	8104	24.785228224929	2
60	8109	24.785860224929	1
60	8109	24.785860224929	0
60	8117	24.786810224929	1
60	8118	24.786810224929	2
60	8123	24.787442224929	1
60	8123	24.787442224929	0
60	8131	24.788152224929	1
60	8132	24.788152224929	2
60	8137	24.788784224929	1
60	8137	24.788784224929	0
60	8145	24.789134224929	1
60	8146	24.789134224929	2
60	8151	24.789766224929	1
60	8151	24.789766224929	0
60	8159	24.790156224929	1
60	8160	24.790156224929	2
60	8165	24.790788224929	1
60	8165	24.790788224929	0
61	4689	14.646623640575	67
61	8171	24.791088224929	67
62	8234	0.1	0
62	8234	0.2	0
62	8234	0.3	0
62	8234	0.4	0
62	8234	0.5	0
62	8234	0.6	0
62	8234	0.7	0
62	8234	0.8	0
62	8234	0.9	0
62	8234	1	0
62	8234	1.1	0
62	8234	1.2	0
62	8234	1.3	0
62	8234	1.4	0
62	8234	1.5	0
62	8234	1.6	0
62	8234	1.7	0
62	8234	1.8	0
62	8234	1.9	0
62	8234	2	0
62	8234	2.1	0
62	8234	2.2	0
62	8234	2.3	0
62	8234	2.4	0
62	8234	2.5	0
62	8234	2.6	0
62	8234	2.7	0
62	8234	2.8	0
62	8234	2.9	0
62	8234	3	0
62	8234	3.1	0
62	8234	3.2	0
62	8234	3.3	0
62	8234	3.4	0
62	8234	3.5	0
62	8234	3.6	0
62	8234	3.7	0
62	8234	3.8	0
62	8234	3.9	0
62	8234	4	0
62	8234	4.1	0
62	8234	4.2	0
62	8234	4.3	0
62	8234	4.4	0
62	8234	4.5	0
62	8234	4.6	0
62	8234	4.7	0
62	8234	4.8	0
62	8234	4.9	0
62	8234	5	0
62	8234	5.1	0
62	8234	5.2	0
62	8234	5.3	0
62	8234	5.4	0
62	8234	5.5	0
62	8234	5.6	0
62	8234	5.7	0
62	8234	5.8	0
62	8234	5.9	0
62	8234	6	0
62	8234	6.1	0
62	8234	6.2	0
62	8234	6.3	0
62	8234	6.4	0
62	8234	6.5	0
62	8234	6.6	0
62	8234	6.7	0
62	8234	6.8	0
62	8234	6.9	0
62	8234	7	0
62	8234	7.1	0
62	8234	7.2	0
62	8234	7.3	0
62	8234	7.4	0
62	8234	7.5	0
62	8234	7.6	0
62	8234	7.7	0
62	8234	7.8	0
62	8234	7.9	0
62	8234	8	0
62	8234	8.1	0
62	8234	8.2	0
62	8234	8.3	0
62	8234	8.4	0
62	8234	8.5	0
62	8234	8.6	0
62	8234	8.7	0
62	8234	8.8	0
62	8234	8.9	0
62	8234	9	0
62	8234	9.1	0
62	8234	9.2	0
62	8234	9.3	0
62	8234	9.4	0
62	8234	9.5	0
62	8234	9.6	0
62	8234	9.7	0
62	8234	9.8	0
62	8234	9.9	0
62	8234	10	0
62	8234	10.1	0
62	8234	10.2	0
62	8234	10.3	0
62	8234	10.4	0
62	8234	10.5	0
62	8234	10.6	0
62	8234	10.7	0
62	8234	10.8	0
62	8234	10.9	0
62	8234	11	0
62	8234	11.1	0
62	8234	11.2	0
62	8234	11.3	0
62	8234	11.4	0
62	8234	11.5	0
62	8234	11.6	0
62	8234	11.7	0
62	8234	11.8	0
62	8234	11.9	0
62	8234	12	0
62	8234	12.1	0
62	8234	12.2	0
62	8234	12.3	0
62	8234	12.4	0
62	8234	12.5	0
62	8234	12.6	0
62	8234	12.7	0
62	8234	12.8	0
62	8234	12.9	0
62	8234	13	0
62	8234	13.1	0
62	8234	13.2	0
62	8234	13.3	0
62	8234	13.4	0
62	8234	13.5	0
62	8234	13.6	0
62	8234	13.7	0
62	8234	13.8	0
62	8234	13.9	0
62	8234	14	0
62	8234	14.1	0
62	8234	14.2	0
62	8234	14.3	0
62	8234	14.4	0
62	8234	14.5	0
62	8234	14.6	0
62	8234	14.7	0
62	8234	14.8	0
62	8234	14.9	0
62	8234	15	0
62	8234	15.1	0
62	8234	15.2	0
62	8234	15.3	0
62	8234	15.4	0
62	8234	15.5	0
62	8234	15.6	0
62	8234	15.7	0
62	8234	15.8	0
62	8234	15.9	0
62	8234	16	0
62	8234	16.1	0
62	8234	16.2	0
62	8234	16.3	0
62	8234	16.4	0
62	8234	16.5	0
62	8234	16.6	0
62	8234	16.7	0
62	8234	16.8	0
62	8234	16.9	0
62	8234	17	0
62	8234	17.1	0
62	8234	17.2	0
62	8234	17.3	0
62	8234	17.4	0
62	8234	17.5	0
62	8234	17.6	0
62	8234	17.7	0
62	8234	17.8	0
62	8234	17.9	0
62	8234	18	0
62	8234	18.1	0
62	8234	18.2	0
62	8234	18.3	0
62	8234	18.4	0
62	8234	18.5	0
62	8234	18.6	0
62	8234	18.7	0
62	8234	18.8	0
62	8234	18.9	0
62	8234	19	0
62	8234	19.1	0
62	8234	19.2	0
62	8234	19.3	0
62	8234	19.4	0
62	8234	19.5	0
62	8234	19.6	0
62	8234	19.7	0
62	8234	19.8	0
62	8234	19.9	0
62	8234	20	0
62	8234	20.1	0
62	8234	20.2	0
62	8234	20.3	0
62	8234	20.4	0
62	8234	20.5	0
62	8234	20.6	0
62	8234	20.7	0
62	8234	20.8	0
62	8234	20.9	0
62	8234	21	0
62	8234	21.1	0
62	8234	21.2	0
62	8234	21.3	0
62	8234	21.4	0
62	8234	21.5	0
62	8234	21.6	0
62	8234	21.7	0
62	8234	21.8	0
62	8234	21.9	0
62	8234	22	0
62	8234	22.1	0
62	8234	22.2	0
62	8234	22.3	0
62	8234	22.4	0
62	8234	22.5	0
62	8234	22.6	0
62	8234	22.7	0
62	8234	22.8	0
62	8234	22.9	0
62	8234	23	0
62	8234	23.1	0
62	8234	23.2	0
62	8234	23.3	0
62	8234	23.4	0
62	8234	23.5	0
62	8234	23.6	0
62	8234	23.7	0
62	8234	23.8	0
62	8234	23.9	0
62	8234	24	0
62	8234	24.1	0
62	8234	24.2	0
62	8234	24.3	0
62	8234	24.4	0
62	8234	24.5	0
62	8234	24.6	0
62	8234	24.7	0
62	8234	24.8	0
62	8234	24.9	0
62	8234	25	0
63	8234	0.1	0
63	8234	0.2	0
63	8234	0.3	0
63	8234	0.4	0
63	8234	0.5	0
63	8234	0.6	0
63	8234	0.7	0
63	8234	0.8	0
63	8234	0.9	0
63	8234	1	0
63	8234	1.1	0
63	8234	1.2	0
63	8234	1.3	0
63	8234	1.4	0
63	8234	1.5	0
63	8234	1.6	0
63	8234	1.7	0
63	8234	1.8	0
63	8234	1.9	0
63	8234	2	0
63	8234	2.1	0
63	8234	2.2	0
63	8234	2.3	0
63	8234	2.4	0
63	8234	2.5	0
63	8234	2.6	0
63	8234	2.7	0
63	8234	2.8	0
63	8234	2.9	0
63	8234	3	0
63	8234	3.1	0
63	8234	3.2	0
63	8234	3.3	0
63	8234	3.4	0
63	8234	3.5	0
63	8234	3.6	0
63	8234	3.7	0
63	8234	3.8	0
63	8234	3.9	0
63	8234	4	0
63	8234	4.1	0
63	8234	4.2	0
63	8234	4.3	0
63	8234	4.4	0
63	8234	4.5	0
63	8234	4.6	0
63	8234	4.7	0
63	8234	4.8	0
63	8234	4.9	0
63	8234	5	0
63	8234	5.1	0
63	8234	5.2	0
63	8234	5.3	0
63	8234	5.4	0
63	8234	5.5	0
63	8234	5.6	0
63	8234	5.7	0
63	8234	5.8	0
63	8234	5.9	0
63	8234	6	0
63	8234	6.1	0
63	8234	6.2	0
63	8234	6.3	0
63	8234	6.4	0
63	8234	6.5	0
63	8234	6.6	0
63	8234	6.7	0
63	8234	6.8	0
63	8234	6.9	0
63	8234	7	0
63	8234	7.1	0
63	8234	7.2	0
63	8234	7.3	0
63	8234	7.4	0
63	8234	7.5	0
63	8234	7.6	0
63	8234	7.7	0
63	8234	7.8	0
63	8234	7.9	0
63	8234	8	0
63	8234	8.1	0
63	8234	8.2	0
63	8234	8.3	0
63	8234	8.4	0
63	8234	8.5	0
63	8234	8.6	0
63	8234	8.7	0
63	8234	8.8	0
63	8234	8.9	0
63	8234	9	0
63	8234	9.1	0
63	8234	9.2	0
63	8234	9.3	0
63	8234	9.4	0
63	8234	9.5	0
63	8234	9.6	0
63	8234	9.7	0
63	8234	9.8	0
63	8234	9.9	0
63	8234	10	0
63	8234	10.1	0
63	8234	10.2	0
63	8234	10.3	0
63	8234	10.4	0
63	8234	10.5	0
63	8234	10.6	0
63	8234	10.7	0
63	8234	10.8	0
63	8234	10.9	0
63	8234	11	0
63	8234	11.1	0
63	8234	11.2	0
63	8234	11.3	0
63	8234	11.4	0
63	8234	11.5	0
63	8234	11.6	0
63	8234	11.7	0
63	8234	11.8	0
63	8234	11.9	0
63	8234	12	0
63	8234	12.1	0
63	8234	12.2	0
63	8234	12.3	0
63	8234	12.4	0
63	8234	12.5	0
63	8234	12.6	0
63	8234	12.7	0
63	8234	12.8	0
63	8234	12.9	0
63	8234	13	0
63	8234	13.1	0
63	8234	13.2	0
63	8234	13.3	0
63	8234	13.4	0
63	8234	13.5	0
63	8234	13.6	0
63	8234	13.7	0
63	8234	13.8	0
63	8234	13.9	0
63	8234	14	0
63	8234	14.1	0
63	8234	14.2	0
63	8234	14.3	0
63	8234	14.4	0
63	8234	14.5	0
63	8234	14.6	0
63	8234	14.7	0
63	8234	14.8	0
63	8234	14.9	0
63	8234	15	0
63	8234	15.1	0
63	8234	15.2	0
63	8234	15.3	0
63	8234	15.4	0
63	8234	15.5	0
63	8234	15.6	0
63	8234	15.7	0
63	8234	15.8	0
63	8234	15.9	0
63	8234	16	0
63	8234	16.1	0
63	8234	16.2	0
63	8234	16.3	0
63	8234	16.4	0
63	8234	16.5	0
63	8234	16.6	0
63	8234	16.7	0
63	8234	16.8	0
63	8234	16.9	0
63	8234	17	0
63	8234	17.1	0
63	8234	17.2	0
63	8234	17.3	0
63	8234	17.4	0
63	8234	17.5	0
63	8234	17.6	0
63	8234	17.7	0
63	8234	17.8	0
63	8234	17.9	0
63	8234	18	0
63	8234	18.1	0
63	8234	18.2	0
63	8234	18.3	0
63	8234	18.4	0
63	8234	18.5	0
63	8234	18.6	0
63	8234	18.7	0
63	8234	18.8	0
63	8234	18.9	0
63	8234	19	0
63	8234	19.1	0
63	8234	19.2	0
63	8234	19.3	0
63	8234	19.4	0
63	8234	19.5	0
63	8234	19.6	0
63	8234	19.7	0
63	8234	19.8	0
63	8234	19.9	0
63	8234	20	0
63	8234	20.1	0
63	8234	20.2	0
63	8234	20.3	0
63	8234	20.4	0
63	8234	20.5	0
63	8234	20.6	0
63	8234	20.7	0
63	8234	20.8	0
63	8234	20.9	0
63	8234	21	0
63	8234	21.1	0
63	8234	21.2	0
63	8234	21.3	0
63	8234	21.4	0
63	8234	21.5	0
63	8234	21.6	0
63	8234	21.7	0
63	8234	21.8	0
63	8234	21.9	0
63	8234	22	0
63	8234	22.1	0
63	8234	22.2	0
63	8234	22.3	0
63	8234	22.4	0
63	8234	22.5	0
63	8234	22.6	0
63	8234	22.7	0
63	8234	22.8	0
63	8234	22.9	0
63	8234	23	0
63	8234	23.1	0
63	8234	23.2	0
63	8234	23.3	0
63	8234	23.4	0
63	8234	23.5	0
63	8234	23.6	0
63	8234	23.7	0
63	8234	23.8	0
63	8234	23.9	0
63	8234	24	0
63	8234	24.1	0
63	8234	24.2	0
63	8234	24.3	0
63	8234	24.4	0
63	8234	24.5	0
63	8234	24.6	0
63	8234	24.7	0
63	8234	24.8	0
63	8234	24.9	0
63	8234	25	0

