version 2
run Wireless04-0-20210901-16:24:47-29640
attr configname Wireless04
attr datetime 20210901-16:24:47
attr experiment Wireless04
attr inifile omnetpp.ini
attr iterationvars ""
attr iterationvarsf ""
attr measurement ""
attr network WirelessB
attr processid 29640
attr repetition 0
attr replication #0
attr resultdir results
attr runnumber 0
attr seedset 0
param *.host*.forwarding true
param *.configurator.config "xml(\"<config><interface hosts='**' address='10.0.0.x' netmask='255.255.255.0'/><autoroute metric='errorRate'/></config>\")"
param *.configurator.optimizeRoutes false
param *.host*.ipv4.routingTable.netmaskRoutes "\"\""
param *.visualizer.physicalLinkVisualizer.displayLinks true
param *.visualizer.dataLinkVisualizer.displayLinks true
param *.visualizer.networkRouteVisualizer.displayRoutes true
param *.visualizer.*LinkVisualizer.lineShift 0
param *.visualizer.networkRouteVisualizer.lineShift 0
param *.visualizer.networkRouteVisualizer.packetFilter "\"UDPData*\""
param *.host*.wlan[0].radio.transmitter.communicationRange 250m
param *.hostR1.wlan[0].radio.displayCommunicationRange true
param *.hostA.wlan[0].radio.displayCommunicationRange true
param *.visualizer.sceneVisualizer.descriptionFigure "\"title\""
param *.visualizer.mediumVisualizer.displaySignals true
param *.visualizer.physicalLinkVisualizer.displayLinks true
param *.visualizer.physicalLinkVisualizer.packetFilter "\"UDPData*\""
param *.host*.ipv4.arp.typename "\"GlobalArp\""
param *.hostA.numApps 1
param *.hostA.app[0].typename "\"UdpBasicApp\""
param *.hostA.app[0].destAddresses "\"hostB\""
param *.hostA.app[0].destPort 5000
param *.hostA.app[0].messageLength 1000B
param *.hostA.app[0].sendInterval exponential(12ms)
param *.hostA.app[0].packetName "\"UDPData\""
param *.hostB.numApps 1
param *.hostB.app[0].typename "\"UdpSink\""
param *.hostB.app[0].localPort 5000
param *.host*.wlan[0].typename "\"AckingWirelessInterface\""
param *.host*.wlan[0].mac.useAck false
param *.host*.wlan[0].mac.fullDuplex false
param *.host*.wlan[0].radio.transmitter.communicationRange 400m
param *.host*.wlan[0].radio.receiver.ignoreInterference true
param *.host*.wlan[0].mac.headerLength 23B
param *.host*.**.bitrate 1Mbps

vector 0 WirelessB.hostA.wlan[0].radio radioMode:vector ETV
attr interpolationmode sample-hold
attr source radioModeChanged
attr title "Radio mode, vector"
vector 1 WirelessB.hostB.wlan[0].radio radioMode:vector ETV
attr interpolationmode sample-hold
attr source radioModeChanged
attr title "Radio mode, vector"
vector 2 WirelessB.hostR1.wlan[0].radio radioMode:vector ETV
attr interpolationmode sample-hold
attr source radioModeChanged
attr title "Radio mode, vector"
vector 3 WirelessB.hostR2.wlan[0].radio radioMode:vector ETV
attr interpolationmode sample-hold
attr source radioModeChanged
attr title "Radio mode, vector"
vector 4 WirelessB.hostR3.wlan[0].radio radioMode:vector ETV
attr interpolationmode sample-hold
attr source radioModeChanged
attr title "Radio mode, vector"
vector 5 WirelessB.hostA.wlan[0].radio receptionState:vector ETV
attr interpolationmode sample-hold
attr source receptionStateChanged
attr title "Radio reception state, vector"
vector 6 WirelessB.hostB.wlan[0].radio receptionState:vector ETV
attr interpolationmode sample-hold
attr source receptionStateChanged
attr title "Radio reception state, vector"
vector 7 WirelessB.hostR1.wlan[0].radio receptionState:vector ETV
attr interpolationmode sample-hold
attr source receptionStateChanged
attr title "Radio reception state, vector"
vector 8 WirelessB.hostR2.wlan[0].radio receptionState:vector ETV
attr interpolationmode sample-hold
attr source receptionStateChanged
attr title "Radio reception state, vector"
vector 9 WirelessB.hostR3.wlan[0].radio receptionState:vector ETV
attr interpolationmode sample-hold
attr source receptionStateChanged
attr title "Radio reception state, vector"
vector 10 WirelessB.hostA.app[0] packetSent:vector(packetBytes) ETV
attr interpolationmode none
attr source packetSent
attr title "packets sent, vector(packetBytes)"
vector 11 WirelessB.hostA.udp packetSent:vector(packetBytes) ETV
attr interpolationmode none
attr source packetSent
attr title "packets sent, vector(packetBytes)"
vector 12 WirelessB.hostA.wlan[0].mac rcvdPkFromHl:vector(packetBytes) ETV
attr interpolationmode none
attr source packetReceivedFromUpper
attr title "packets received from higher layer, vector(packetBytes)"
vector 13 WirelessB.hostA.wlan[0].mac.queue packetPushed:vector(packetBytes) ETV
attr interpolationmode none
attr title "packet pushed, vector(packetBytes)"
vector 14 WirelessB.hostA.wlan[0].mac.queue queueLength:vector ETV
attr interpolationmode sample-hold
attr source "count(packetPushed) - count(packetPopped) - count(packetRemoved) - count(packetDropped)"
attr title "queue length, vector"
vector 15 WirelessB.hostA.wlan[0].mac.queue packetPopped:vector(packetBytes) ETV
attr interpolationmode none
attr title "packet popped, vector(packetBytes)"
vector 16 WirelessB.hostA.wlan[0].mac.queue queueingTime:vector ETV
attr interpolationmode none
attr source queueingTime(packetPopped)
attr title "queueing times, vector"
attr unit s
vector 17 WirelessB.hostA.wlan[0].radio transmissionState:vector ETV
attr interpolationmode sample-hold
attr source transmissionStateChanged
attr title "Radio transmission state, vector"
vector 18 WirelessB.hostA.wlan[0].mac sentDownPk:vector(packetBytes) ETV
attr interpolationmode none
attr source packetSentToLower
attr title "packets sent to lower layer, vector(packetBytes)"
vector 19 WirelessB.hostR2.wlan[0].mac rcvdPkFromLl:vector(packetBytes) ETV
attr interpolationmode none
attr source packetReceivedFromLower
attr title "packets received from lower layer, vector(packetBytes)"
vector 20 WirelessB.hostR2.wlan[0].mac packetDropNotAddressedToUs:vector(packetBytes) ETV
attr interpolationmode none
attr source packetDropReasonIsNotAddressedToUs(packetDropped)
attr title "packet drop: not addressed to us, vector(packetBytes)"
vector 21 WirelessB.hostR1.wlan[0].mac rcvdPkFromLl:vector(packetBytes) ETV
attr interpolationmode none
attr source packetReceivedFromLower
attr title "packets received from lower layer, vector(packetBytes)"
vector 22 WirelessB.hostR1.wlan[0].mac passedUpPk:vector(packetBytes) ETV
attr interpolationmode none
attr source packetSentToUpper
attr title "packets passed to higher layer, vector(packetBytes)"
vector 23 WirelessB.hostR1.wlan[0].mac rcvdPkFromHl:vector(packetBytes) ETV
attr interpolationmode none
attr source packetReceivedFromUpper
attr title "packets received from higher layer, vector(packetBytes)"
vector 24 WirelessB.hostR1.wlan[0].mac.queue packetPushed:vector(packetBytes) ETV
attr interpolationmode none
attr title "packet pushed, vector(packetBytes)"
vector 25 WirelessB.hostR1.wlan[0].mac.queue queueLength:vector ETV
attr interpolationmode sample-hold
attr source "count(packetPushed) - count(packetPopped) - count(packetRemoved) - count(packetDropped)"
attr title "queue length, vector"
vector 26 WirelessB.hostR1.wlan[0].mac.queue packetPopped:vector(packetBytes) ETV
attr interpolationmode none
attr title "packet popped, vector(packetBytes)"
vector 27 WirelessB.hostR1.wlan[0].mac.queue queueingTime:vector ETV
attr interpolationmode none
attr source queueingTime(packetPopped)
attr title "queueing times, vector"
attr unit s
vector 28 WirelessB.hostR1.wlan[0].radio transmissionState:vector ETV
attr interpolationmode sample-hold
attr source transmissionStateChanged
attr title "Radio transmission state, vector"
vector 29 WirelessB.hostR1.wlan[0].mac sentDownPk:vector(packetBytes) ETV
attr interpolationmode none
attr source packetSentToLower
attr title "packets sent to lower layer, vector(packetBytes)"
vector 30 WirelessB.hostR3.wlan[0].mac rcvdPkFromLl:vector(packetBytes) ETV
attr interpolationmode none
attr source packetReceivedFromLower
attr title "packets received from lower layer, vector(packetBytes)"
vector 31 WirelessB.hostR3.wlan[0].mac packetDropNotAddressedToUs:vector(packetBytes) ETV
attr interpolationmode none
attr source packetDropReasonIsNotAddressedToUs(packetDropped)
attr title "packet drop: not addressed to us, vector(packetBytes)"
vector 32 WirelessB.hostB.wlan[0].mac rcvdPkFromLl:vector(packetBytes) ETV
attr interpolationmode none
attr source packetReceivedFromLower
attr title "packets received from lower layer, vector(packetBytes)"
vector 33 WirelessB.hostB.wlan[0].mac passedUpPk:vector(packetBytes) ETV
attr interpolationmode none
attr source packetSentToUpper
attr title "packets passed to higher layer, vector(packetBytes)"
vector 34 WirelessB.hostB.udp packetReceived:vector(packetBytes) ETV
attr interpolationmode none
attr source packetReceived
attr title "packets received, vector(packetBytes)"
vector 35 WirelessB.hostB.udp passedUpPk:vector(count) ETV
attr interpolationmode none
attr source packetSentToUpper
attr title "packets passed up, vector(count)"
vector 36 WirelessB.hostB.app[0] packetReceived:vector(packetBytes) ETV
attr interpolationmode none
attr source packetReceived
attr title "packets received, vector(packetBytes)"
vector 37 WirelessB.hostB.app[0] endToEndDelay:vector ETV
attr interpolationmode none
attr source dataAge(packetReceived)
attr title "end-to-end delay, vector"
attr unit s
vector 38 WirelessB.hostB.app[0] rcvdPkSeqNo:vector ETV
attr interpolationmode none
attr source appPkSeqNo(packetReceived)
attr title "received packet sequence number, vector"
vector 39 WirelessB.hostB.app[0] throughput:vector ETV
attr source throughput(packetReceived)
attr title "throughput, vector"
attr unit bps
vector 40 WirelessB.hostA.wlan[0].mac rcvdPkFromLl:vector(packetBytes) ETV
attr interpolationmode none
attr source packetReceivedFromLower
attr title "packets received from lower layer, vector(packetBytes)"
vector 41 WirelessB.hostA.wlan[0].mac packetDropNotAddressedToUs:vector(packetBytes) ETV
attr interpolationmode none
attr source packetDropReasonIsNotAddressedToUs(packetDropped)
attr title "packet drop: not addressed to us, vector(packetBytes)"
0	0	0	0
0	0	0	0
0	0	0	2
0	8	0.022315250545	3
0	18	0.030819250545	2
0	18	0.030819250545	3
0	41	0.039323250545	2
0	41	0.039323250545	3
0	63	0.047827250545	2
0	82	0.053995414818	3
0	104	0.062499414818	2
0	104	0.062499414818	3
0	119	0.071003414818	2
0	119	0.071003414818	3
0	139	0.079507414818	2
0	161	0.089528900904	3
0	171	0.098032900904	2
0	171	0.098032900904	3
0	190	0.106536900904	2
0	209	0.107003186959	3
0	220	0.115507186959	2
0	220	0.115507186959	3
0	241	0.124011186959	2
0	263	0.15031620375	3
0	273	0.15882020375	2
0	273	0.15882020375	3
0	292	0.16732420375	2
0	312	0.176621680585	3
0	324	0.185125680585	2
0	324	0.185125680585	3
0	343	0.193629680585	2
0	365	0.203690215556	3
0	371	0.212194215556	2
0	388	0.21250978861	3
0	405	0.22101378861	2
0	414	0.226141055911	3
0	422	0.234645055911	2
0	439	0.241443788338	3
0	457	0.249947788338	2
0	465	0.251911642679	3
0	473	0.260415642679	2
0	490	0.261161658581	3
0	507	0.269665658581	2
0	516	0.278218034742	3
0	528	0.286722034742	2
0	528	0.286722034742	3
0	555	0.295226034742	2
0	555	0.295226034742	3
0	577	0.303730034742	2
0	577	0.303730034742	3
0	610	0.312234034742	2
0	610	0.312234034742	3
0	644	0.320738034742	2
0	644	0.320738034742	3
0	669	0.329242034742	2
0	669	0.329242034742	3
0	691	0.337746034742	2
0	691	0.337746034742	3
0	712	0.346250034742	2
0	712	0.346250034742	3
0	738	0.354754034742	2
0	738	0.354754034742	3
0	763	0.363258034742	2
0	763	0.363258034742	3
0	785	0.371762034742	2
0	785	0.371762034742	3
0	810	0.380266034742	2
0	810	0.380266034742	3
0	832	0.388770034742	2
0	832	0.388770034742	3
0	853	0.397274034742	2
0	873	0.400388501443	3
0	885	0.408892501443	2
0	885	0.408892501443	3
0	904	0.417396501443	2
0	926	0.443645800365	3
0	932	0.452149800365	2
0	949	0.456351809943	3
0	975	0.464855809943	2
0	975	0.464855809943	3
0	986	0.473359809943	2
0	986	0.473359809943	3
0	1010	0.481863809943	2
0	1010	0.481863809943	3
0	1032	0.490367809943	2
0	1049	0.491823022072	3
0	1076	0.500327022072	2
0	1076	0.500327022072	3
0	1087	0.508831022072	2
0	1087	0.508831022072	3
0	1112	0.517335022072	2
0	1112	0.517335022072	3
0	1134	0.525839022072	2
0	1167	0.547396382404	3
0	1173	0.555900382404	2
0	1190	0.560090299364	3
0	1208	0.568594299364	2
0	1216	0.572186530309	3
0	1224	0.580690530309	2
0	1255	0.636507734512	3
0	1261	0.645011734512	2
0	1278	0.646970724756	3
0	1300	0.655474724756	2
0	1300	0.655474724756	3
0	1315	0.663978724756	2
0	1315	0.663978724756	3
0	1335	0.672482724756	2
0	1354	0.672839241789	3
0	1365	0.681343241789	2
0	1365	0.681343241789	3
0	1386	0.689847241789	2
0	1405	0.691267276166	3
0	1416	0.699771276166	2
0	1416	0.699771276166	3
0	1437	0.708275276166	2
0	1457	0.713925570285	3
0	1465	0.722429570285	2
0	1496	0.749771848987	3
0	1502	0.758275848987	2
0	1519	0.762807081558	3
0	1541	0.771311081558	2
0	1541	0.771311081558	3
0	1556	0.779815081558	2
0	1556	0.779815081558	3
0	1580	0.788319081558	2
0	1580	0.788319081558	3
0	1602	0.796823081558	2
0	1635	0.830993112566	3
0	1641	0.839497112566	2
0	1671	0.856256968176	3
0	1678	0.864760968176	2
0	1695	0.864807971296	3
0	1724	0.873311971296	2
0	1724	0.873311971296	3
0	1739	0.881815971296	2
0	1739	0.881815971296	3
0	1760	0.890319971296	2
0	1760	0.890319971296	3
0	1782	0.898823971296	2
0	1782	0.898823971296	3
0	1803	0.907327971296	2
0	1825	0.926630920731	3
0	1835	0.935134920731	2
0	1835	0.935134920731	3
0	1858	0.943638920731	2
0	1858	0.943638920731	3
0	1880	0.952142920731	2
0	1899	0.953846192005	3
0	1917	0.962350192005	2
0	1927	0.979337038369	3
0	1933	0.987841038369	2
0	1964	1.009383979766	3
0	1974	1.017887979766	2
0	1974	1.017887979766	3
0	1997	1.026391979766	2
0	1997	1.026391979766	3
0	2019	1.034895979766	2
0	2051	1.046349733606	3
0	2058	1.054853733606	2
0	2075	1.054884708853	3
0	2092	1.063388708853	2
0	2103	1.084711697137	3
0	2109	1.093215697137	2
0	2140	1.115195351233	3
0	2158	1.123699351233	2
0	2158	1.123699351233	3
0	2177	1.132203351233	2
0	2177	1.132203351233	3
0	2199	1.140707351233	2
0	2199	1.140707351233	3
0	2224	1.149211351233	2
0	2224	1.149211351233	3
0	2250	1.157715351233	2
0	2250	1.157715351233	3
0	2271	1.166219351233	2
0	2293	1.177018180335	3
0	2303	1.185522180335	2
0	2303	1.185522180335	3
0	2326	1.194026180335	2
0	2326	1.194026180335	3
0	2356	1.202530180335	2
0	2356	1.202530180335	3
0	2385	1.211034180335	2
0	2385	1.211034180335	3
0	2411	1.219538180335	2
0	2411	1.219538180335	3
0	2432	1.228042180335	2
0	2432	1.228042180335	3
0	2462	1.236546180335	2
0	2462	1.236546180335	3
0	2487	1.245050180335	2
0	2487	1.245050180335	3
0	2509	1.253554180335	2
0	2509	1.253554180335	3
0	2534	1.262058180335	2
0	2534	1.262058180335	3
0	2560	1.270562180335	2
0	2560	1.270562180335	3
0	2581	1.279066180335	2
0	2581	1.279066180335	3
0	2603	1.287570180335	2
0	2622	1.291819591578	3
0	2640	1.300323591578	2
0	2648	1.304043496338	3
0	2656	1.312547496338	2
0	2686	1.33070157912	3
0	2693	1.33920557912	2
0	2710	1.344376874682	3
0	2732	1.352880874682	2
0	2732	1.352880874682	3
0	2743	1.361384874682	2
0	2775	1.397649506413	3
0	2785	1.406153506413	2
0	2785	1.406153506413	3
0	2804	1.414657506413	2
0	2824	1.416613648884	3
0	2836	1.425117648884	2
0	2836	1.425117648884	3
0	2855	1.433621648884	2
0	2875	1.436485703045	3
0	2891	1.444989703045	2
0	2891	1.444989703045	3
0	2910	1.453493703045	2
0	2910	1.453493703045	3
0	2932	1.461997703045	2
0	2965	1.484815940304	3
0	2971	1.493319940304	2
0	2988	1.495470277229	3
0	3006	1.503974277229	2
0	3014	1.508404295839	3
0	3022	1.516908295839	2
0	3039	1.517546709095	3
0	3060	1.526050709095	2
0	3060	1.526050709095	3
0	3075	1.534554709095	2
0	3075	1.534554709095	3
0	3100	1.543058709095	2
0	3100	1.543058709095	3
0	3126	1.551562709095	2
0	3126	1.551562709095	3
0	3151	1.560066709095	2
0	3151	1.560066709095	3
0	3173	1.568570709095	2
0	3190	1.568751879655	3
0	3213	1.577255879655	2
0	3213	1.577255879655	3
0	3228	1.585759879655	2
0	3228	1.585759879655	3
0	3249	1.594263879655	2
0	3268	1.595227235163	3
0	3275	1.603731235163	2
0	3307	1.620516606422	3
0	3326	1.629020606422	2
0	3326	1.629020606422	3
0	3345	1.637524606422	2
0	3345	1.637524606422	3
0	3375	1.646028606422	2
0	3375	1.646028606422	3
0	3396	1.654532606422	2
0	3396	1.654532606422	3
0	3418	1.663036606422	2
0	3418	1.663036606422	3
0	3439	1.671540606422	2
0	3459	1.679938071424	3
0	3475	1.688442071424	2
0	3475	1.688442071424	3
0	3502	1.696946071424	2
0	3502	1.696946071424	3
0	3524	1.705450071424	2
0	3524	1.705450071424	3
0	3545	1.713954071424	2
0	3545	1.713954071424	3
0	3567	1.722458071424	2
0	3599	1.740293698477	3
0	3610	1.748797698477	2
0	3610	1.748797698477	3
0	3633	1.757301698477	2
0	3633	1.757301698477	3
0	3663	1.765805698477	2
0	3663	1.765805698477	3
0	3688	1.774309698477	2
0	3688	1.774309698477	3
0	3714	1.782813698477	2
0	3714	1.782813698477	3
0	3735	1.791317698477	2
0	3735	1.791317698477	3
0	3761	1.799821698477	2
0	3761	1.799821698477	3
0	3782	1.808325698477	2
0	3804	1.82463349594	3
0	3814	1.83313749594	2
0	3814	1.83313749594	3
0	3841	1.84164149594	2
0	3841	1.84164149594	3
0	3863	1.85014549594	2
0	3863	1.85014549594	3
0	3888	1.85864949594	2
0	3888	1.85864949594	3
0	3910	1.86715349594	2
0	3942	1.877944088658	3
0	3957	1.886448088658	2
0	3957	1.886448088658	3
0	3980	1.894952088658	2
0	3980	1.894952088658	3
0	4002	1.903456088658	2
0	4002	1.903456088658	3
0	4023	1.911960088658	2
0	4045	1.935117218811	3
0	4055	1.943621218811	2
0	4055	1.943621218811	3
0	4082	1.952125218811	2
0	4082	1.952125218811	3
0	4116	1.960629218811	2
0	4116	1.960629218811	3
0	4137	1.969133218811	2
0	4137	1.969133218811	3
0	4163	1.977637218811	2
0	4163	1.977637218811	3
0	4184	1.986141218811	2
0	4184	1.986141218811	3
0	4206	1.994645218811	2
0	4206	1.994645218811	3
0	4227	2.003149218811	2
0	4247	2.008682702821	3
0	4255	2.017186702821	2
0	4272	2.025318199045	3
0	4294	2.033822199045	2
0	4294	2.033822199045	3
0	4309	2.042326199045	2
0	4309	2.042326199045	3
0	4341	2.050830199045	2
0	4341	2.050830199045	3
0	4367	2.059334199045	2
0	4367	2.059334199045	3
0	4388	2.067838199045	2
0	4388	2.067838199045	3
0	4410	2.076342199045	2
0	4410	2.076342199045	3
0	4435	2.084846199045	2
0	4435	2.084846199045	3
0	4457	2.093350199045	2
0	4490	2.114953076649	3
0	4496	2.123457076649	2
0	4513	2.126198741262	3
0	4531	2.134702741262	2
0	4539	2.13709430959	3
0	4547	2.14559830959	2
0	4576	2.155464284305	3
0	4587	2.163968284305	2
0	4587	2.163968284305	3
0	4611	2.172472284305	2
0	4611	2.172472284305	3
0	4637	2.180976284305	2
0	4637	2.180976284305	3
0	4658	2.189480284305	2
0	4680	2.237364121944	3
0	4690	2.245868121944	2
0	4690	2.245868121944	3
0	4709	2.254372121944	2
0	4728	2.254734893547	3
0	4735	2.263238893547	2
0	4767	2.278700957157	3
0	4774	2.287204957157	2
0	4791	2.295377081922	3
0	4809	2.303881081922	2
0	4819	2.335432293928	3
0	4825	2.343936293928	2
0	4842	2.345128054569	3
0	4867	2.353632054569	2
0	4867	2.353632054569	3
0	4882	2.362136054569	2
0	4882	2.362136054569	3
0	4907	2.370640054569	2
0	4907	2.370640054569	3
0	4933	2.379144054569	2
0	4933	2.379144054569	3
0	4954	2.387648054569	2
0	4954	2.387648054569	3
0	4976	2.396152054569	2
0	5008	2.413484220935	3
0	5015	2.421988220935	2
0	5032	2.427177875769	3
0	5058	2.435681875769	2
0	5058	2.435681875769	3
0	5073	2.444185875769	2
0	5073	2.444185875769	3
0	5093	2.452689875769	2
0	5093	2.452689875769	3
0	5115	2.461193875769	2
0	5132	2.462518001412	3
0	5151	2.471022001412	2
0	5162	2.507478336778	3
0	5168	2.515982336778	2
0	5185	2.519015611637	3
0	5203	2.527519611637	2
0	5211	2.528399320288	3
0	5218	2.536903320288	2
0	5249	2.551539641931	3
0	5256	2.560043641931	2
0	5273	2.567882822623	3
0	5295	2.576386822623	2
0	5295	2.576386822623	3
0	5306	2.584890822623	2
0	5324	2.589261857957	3
0	5342	2.597765857957	2
0	5350	2.600470581948	3
0	5358	2.608974581948	2
0	5375	2.615521021189	3
0	5397	2.624025021189	2
0	5397	2.624025021189	3
0	5412	2.632529021189	2
0	5412	2.632529021189	3
0	5432	2.641033021189	2
0	5454	2.658861194437	3
0	5468	2.667365194437	2
0	5468	2.667365194437	3
0	5487	2.675869194437	2
0	5487	2.675869194437	3
0	5509	2.684373194437	2
0	5528	2.689359323221	3
0	5546	2.697863323221	2
0	5556	2.717533448358	3
0	5562	2.726037448358	2
0	5579	2.729987649264	3
0	5601	2.738491649264	2
0	5601	2.738491649264	3
0	5620	2.746995649264	2
0	5620	2.746995649264	3
0	5648	2.755499649264	2
0	5648	2.755499649264	3
0	5670	2.764003649264	2
0	5670	2.764003649264	3
0	5691	2.772507649264	2
0	5691	2.772507649264	3
0	5717	2.781011649264	2
0	5717	2.781011649264	3
0	5738	2.789515649264	2
0	5758	2.794292667356	3
0	5770	2.802796667356	2
0	5770	2.802796667356	3
0	5793	2.811300667356	2
0	5793	2.811300667356	3
0	5815	2.819804667356	2
0	5834	2.82818319492	3
0	5856	2.83668719492	2
0	5856	2.83668719492	3
0	5867	2.84519119492	2
0	5898	2.85678383632	3
0	5909	2.86528783632	2
0	5909	2.86528783632	3
0	5928	2.87379183632	2
0	5950	2.899186135035	3
0	5960	2.907690135035	2
0	5960	2.907690135035	3
0	5979	2.916194135035	2
0	5999	2.921764607637	3
0	6011	2.930268607637	2
0	6011	2.930268607637	3
0	6030	2.938772607637	2
0	6049	2.93949877175	3
0	6056	2.94800277175	2
0	6075	2.951969239389	3
0	6101	2.960473239389	2
0	6101	2.960473239389	3
0	6112	2.968977239389	2
0	6112	2.968977239389	3
0	6136	2.977481239389	2
0	6136	2.977481239389	3
0	6158	2.985985239389	2
0	6177	2.993621644573	3
0	6195	3.002125644573	2
0	6204	3.007103170568	3
0	6219	3.015607170568	2
0	6219	3.015607170568	3
0	6238	3.024111170568	2
0	6238	3.024111170568	3
0	6264	3.032615170568	2
0	6264	3.032615170568	3
0	6289	3.041119170568	2
0	6289	3.041119170568	3
0	6311	3.049623170568	2
0	6330	3.057416293226	3
0	6360	3.065920293226	2
0	6360	3.065920293226	3
0	6371	3.074424293226	2
0	6371	3.074424293226	3
0	6399	3.082928293226	2
0	6399	3.082928293226	3
0	6421	3.091432293226	2
0	6421	3.091432293226	3
0	6450	3.099936293226	2
0	6450	3.099936293226	3
0	6476	3.108440293226	2
0	6476	3.108440293226	3
0	6501	3.116944293226	2
0	6501	3.116944293226	3
0	6523	3.125448293226	2
0	6523	3.125448293226	3
0	6552	3.133952293226	2
0	6552	3.133952293226	3
0	6582	3.142456293226	2
0	6582	3.142456293226	3
0	6603	3.150960293226	2
0	6603	3.150960293226	3
0	6633	3.159464293226	2
0	6633	3.159464293226	3
0	6662	3.167968293226	2
0	6662	3.167968293226	3
0	6684	3.176472293226	2
0	6684	3.176472293226	3
0	6705	3.184976293226	2
0	6705	3.184976293226	3
0	6731	3.193480293226	2
0	6731	3.193480293226	3
0	6752	3.201984293226	2
0	6752	3.201984293226	3
0	6774	3.210488293226	2
0	6774	3.210488293226	3
0	6795	3.218992293226	2
0	6817	3.235637602849	3
0	6823	3.244141602849	2
0	6840	3.250225888529	3
0	6862	3.258729888529	2
0	6862	3.258729888529	3
0	6877	3.267233888529	2
0	6877	3.267233888529	3
0	6901	3.275737888529	2
0	6901	3.275737888529	3
0	6923	3.284241888529	2
0	6942	3.290261081559	3
0	6960	3.298765081559	2
0	6968	3.301452423822	3
0	6980	3.309956423822	2
0	6980	3.309956423822	3
0	7003	3.318460423822	2
0	7003	3.318460423822	3
0	7025	3.326964423822	2
0	7057	3.337027430445	3
0	7068	3.345531430445	2
0	7068	3.345531430445	3
0	7087	3.354035430445	2
0	7107	3.360247898417	3
0	7119	3.368751898417	2
0	7119	3.368751898417	3
0	7138	3.377255898417	2
0	7158	3.383032573813	3
0	7170	3.391536573813	2
0	7170	3.391536573813	3
0	7189	3.400040573813	2
0	7211	3.413642967983	3
0	7221	3.422146967983	2
0	7221	3.422146967983	3
0	7240	3.430650967983	2
0	7260	3.434047032374	3
0	7268	3.442551032374	2
0	7299	3.477962920343	3
0	7305	3.486466920343	2
0	7335	3.501755907198	3
0	7342	3.510259907198	2
0	7371	3.519948734356	3
0	7378	3.528452734356	2
0	7410	3.570371047471	3
0	7416	3.578875047471	2
0	7433	3.587179155835	3
0	7459	3.595683155835	2
0	7459	3.595683155835	3
0	7478	3.604187155835	2
0	7478	3.604187155835	3
0	7502	3.612691155835	2
0	7502	3.612691155835	3
0	7532	3.621195155835	2
0	7532	3.621195155835	3
0	7553	3.629699155835	2
0	7553	3.629699155835	3
0	7575	3.638203155835	2
0	7575	3.638203155835	3
0	7596	3.646707155835	2
0	7596	3.646707155835	3
0	7618	3.655211155835	2
0	7637	3.663355801921	3
0	7659	3.671859801921	2
0	7659	3.671859801921	3
0	7674	3.680363801921	2
0	7674	3.680363801921	3
0	7698	3.688867801921	2
0	7698	3.688867801921	3
0	7720	3.697371801921	2
0	7739	3.703429835309	3
0	7761	3.711933835309	2
0	7761	3.711933835309	3
0	7776	3.720437835309	2
0	7776	3.720437835309	3
0	7804	3.728941835309	2
0	7804	3.728941835309	3
0	7826	3.737445835309	2
0	7826	3.737445835309	3
0	7851	3.745949835309	2
0	7851	3.745949835309	3
0	7873	3.754453835309	2
0	7906	3.774753030799	3
0	7916	3.783257030799	2
0	7916	3.783257030799	3
0	7935	3.791761030799	2
0	7957	3.81613337708	3
0	7967	3.82463737708	2
0	7967	3.82463737708	3
0	7994	3.83314137708	2
0	7994	3.83314137708	3
0	8016	3.84164537708	2
0	8016	3.84164537708	3
0	8037	3.85014937708	2
0	8057	3.855542552587	3
0	8069	3.864046552587	2
0	8069	3.864046552587	3
0	8088	3.872550552587	2
0	8107	3.872581250322	3
0	8114	3.881085250322	2
0	8146	3.89253683969	3
0	8157	3.90104083969	2
0	8157	3.90104083969	3
0	8176	3.90954483969	2
0	8196	3.916066003285	3
0	8204	3.924570003285	2
0	8234	3.937301441164	3
0	8249	3.945805441164	2
0	8249	3.945805441164	3
0	8272	3.954309441164	2
0	8272	3.954309441164	3
0	8298	3.962813441164	2
0	8298	3.962813441164	3
0	8323	3.971317441164	2
0	8323	3.971317441164	3
0	8349	3.979821441164	2
0	8349	3.979821441164	3
0	8374	3.988325441164	2
0	8374	3.988325441164	3
0	8400	3.996829441164	2
0	8400	3.996829441164	3
0	8425	4.005333441164	2
0	8425	4.005333441164	3
0	8447	4.013837441164	2
0	8447	4.013837441164	3
0	8472	4.022341441164	2
0	8472	4.022341441164	3
0	8498	4.030845441164	2
0	8498	4.030845441164	3
0	8519	4.039349441164	2
0	8539	4.048468178279	3
0	8547	4.056972178279	2
0	8564	4.057012275066	3
0	8585	4.065516275066	2
0	8585	4.065516275066	3
0	8604	4.074020275066	2
0	8604	4.074020275066	3
0	8625	4.082524275066	2
0	8625	4.082524275066	3
0	8647	4.091028275066	2
0	8666	4.096369917771	3
0	8684	4.104873917771	2
0	8693	4.110094205218	3
0	8712	4.118598205218	2
0	8712	4.118598205218	3
0	8731	4.127102205218	2
0	8731	4.127102205218	3
0	8753	4.135606205218	2
0	8753	4.135606205218	3
0	8782	4.144110205218	2
0	8782	4.144110205218	3
0	8804	4.152614205218	2
0	8804	4.152614205218	3
0	8829	4.161118205218	2
0	8829	4.161118205218	3
0	8851	4.169622205218	2
0	8884	4.191104568732	3
0	8890	4.199608568732	2
0	8907	4.206175290544	3
0	8929	4.214679290544	2
0	8929	4.214679290544	3
0	8944	4.223183290544	2
0	8944	4.223183290544	3
0	8964	4.231687290544	2
0	8986	4.247599084151	3
0	8996	4.256103084151	2
0	8996	4.256103084151	3
0	9023	4.264607084151	2
0	9023	4.264607084151	3
0	9049	4.273111084151	2
0	9049	4.273111084151	3
0	9070	4.281615084151	2
0	9070	4.281615084151	3
0	9092	4.290119084151	2
0	9109	4.290471354355	3
0	9128	4.298975354355	2
0	9137	4.300226134689	3
0	9152	4.308730134689	2
0	9152	4.308730134689	3
0	9176	4.317234134689	2
0	9176	4.317234134689	3
0	9198	4.325738134689	2
0	9198	4.325738134689	3
0	9231	4.334242134689	2
0	9231	4.334242134689	3
0	9261	4.342746134689	2
0	9261	4.342746134689	3
0	9290	4.351250134689	2
0	9290	4.351250134689	3
0	9312	4.359754134689	2
0	9312	4.359754134689	3
0	9333	4.368258134689	2
0	9333	4.368258134689	3
0	9355	4.376762134689	2
0	9355	4.376762134689	3
0	9384	4.385266134689	2
0	9384	4.385266134689	3
0	9406	4.393770134689	2
0	9406	4.393770134689	3
0	9431	4.402274134689	2
0	9431	4.402274134689	3
0	9453	4.410778134689	2
0	9453	4.410778134689	3
0	9474	4.419282134689	2
0	9494	4.422491790324	3
0	9510	4.430995790324	2
0	9510	4.430995790324	3
0	9533	4.439499790324	2
0	9533	4.439499790324	3
0	9555	4.448003790324	2
0	9555	4.448003790324	3
0	9580	4.456507790324	2
0	9580	4.456507790324	3
0	9610	4.465011790324	2
0	9610	4.465011790324	3
0	9631	4.473515790324	2
0	9631	4.473515790324	3
0	9657	4.482019790324	2
0	9657	4.482019790324	3
0	9678	4.490523790324	2
0	9698	4.497142440849	3
0	9718	4.505646440849	2
0	9718	4.505646440849	3
0	9741	4.514150440849	2
0	9741	4.514150440849	3
0	9763	4.522654440849	2
0	9763	4.522654440849	3
0	9784	4.531158440849	2
0	9784	4.531158440849	3
0	9806	4.539662440849	2
0	9838	4.550141536884	3
0	9845	4.558645536884	2
0	9862	4.559933759652	3
0	9883	4.568437759652	2
0	9883	4.568437759652	3
0	9898	4.576941759652	2
0	9898	4.576941759652	3
0	9919	4.585445759652	2
0	9941	4.596683786519	3
0	9951	4.605187786519	2
0	9951	4.605187786519	3
0	9970	4.613691786519	2
0	9992	4.657344237931	3
0	10006	4.665848237931	2
0	10006	4.665848237931	3
0	10029	4.674352237931	2
0	10029	4.674352237931	3
0	10051	4.682856237931	2
0	10051	4.682856237931	3
0	10072	4.691360237931	2
0	10094	4.707430854816	3
0	10100	4.715934854816	2
0	10131	4.740558108284	3
0	10141	4.749062108284	2
0	10141	4.749062108284	3
0	10160	4.757566108284	2
0	10180	4.763285136582	3
0	10188	4.771789136582	2
0	10205	4.779553758748	3
0	10231	4.788057758748	2
0	10231	4.788057758748	3
0	10246	4.796561758748	2
0	10246	4.796561758748	3
0	10270	4.805065758748	2
0	10270	4.805065758748	3
0	10296	4.813569758748	2
0	10296	4.813569758748	3
0	10317	4.822073758748	2
0	10317	4.822073758748	3
0	10343	4.830577758748	2
0	10343	4.830577758748	3
0	10364	4.839081758748	2
0	10383	4.839221654458	3
0	10390	4.847725654458	2
0	10409	4.852905000981	3
0	10427	4.861409000981	2
0	10435	4.864179024811	3
0	10463	4.872683024811	2
0	10463	4.872683024811	3
0	10482	4.881187024811	2
0	10482	4.881187024811	3
0	10504	4.889691024811	2
0	10504	4.889691024811	3
0	10529	4.898195024811	2
0	10529	4.898195024811	3
0	10555	4.906699024811	2
0	10555	4.906699024811	3
0	10580	4.915203024811	2
0	10580	4.915203024811	3
0	10606	4.923707024811	2
0	10606	4.923707024811	3
0	10627	4.932211024811	2
0	10627	4.932211024811	3
0	10657	4.940715024811	2
0	10657	4.940715024811	3
0	10682	4.949219024811	2
0	10682	4.949219024811	3
0	10704	4.957723024811	2
0	10704	4.957723024811	3
0	10729	4.966227024811	2
0	10729	4.966227024811	3
0	10755	4.974731024811	2
0	10755	4.974731024811	3
0	10780	4.983235024811	2
0	10780	4.983235024811	3
0	10802	4.991739024811	2
0	10802	4.991739024811	3
0	10823	5.000243024811	2
0	10845	5.02333767368	3
0	10855	5.03184167368	2
0	10855	5.03184167368	3
0	10886	5.04034567368	2
0	10886	5.04034567368	3
0	10908	5.04884967368	2
0	10908	5.04884967368	3
0	10929	5.05735367368	2
0	10929	5.05735367368	3
0	10955	5.06585767368	2
0	10955	5.06585767368	3
0	10976	5.07436167368	2
0	10996	5.078459817416	3
0	11004	5.086963817416	2
0	11021	5.090720437585	3
0	11043	5.099224437585	2
0	11043	5.099224437585	3
0	11058	5.107728437585	2
0	11058	5.107728437585	3
0	11078	5.116232437585	2
0	11098	5.120153448829	3
0	11110	5.128657448829	2
0	11110	5.128657448829	3
0	11133	5.137161448829	2
0	11133	5.137161448829	3
0	11159	5.145665448829	2
0	11159	5.145665448829	3
0	11184	5.154169448829	2
0	11184	5.154169448829	3
0	11206	5.162673448829	2
0	11239	5.184035463062	3
0	11245	5.192539463062	2
0	11275	5.20712032591	3
0	11286	5.21562432591	2
0	11286	5.21562432591	3
0	11309	5.22412832591	2
0	11309	5.22412832591	3
0	11331	5.23263232591	2
0	11363	5.24283184969	3
0	11370	5.25133584969	2
0	11387	5.258915161234	3
0	11409	5.267419161234	2
0	11409	5.267419161234	3
0	11420	5.275923161234	2
0	11452	5.307674791215	3
0	11462	5.316178791215	2
0	11462	5.316178791215	3
0	11485	5.324682791215	2
0	11485	5.324682791215	3
0	11507	5.333186791215	2
0	11526	5.335274572258	3
0	11548	5.343778572258	2
0	11548	5.343778572258	3
0	11559	5.352282572258	2
0	11591	5.375658368749	3
0	11601	5.384162368749	2
0	11601	5.384162368749	3
0	11624	5.392666368749	2
0	11624	5.392666368749	3
0	11650	5.401170368749	2
0	11650	5.401170368749	3
0	11671	5.409674368749	2
0	11693	5.426615755098	3
0	11711	5.435119755098	2
0	11711	5.435119755098	3
0	11734	5.443623755098	2
0	11734	5.443623755098	3
0	11756	5.452127755098	2
0	11756	5.452127755098	3
0	11777	5.460631755098	2
0	11777	5.460631755098	3
0	11799	5.469135755098	2
0	11816	5.469314401828	3
0	11839	5.477818401828	2
0	11839	5.477818401828	3
0	11854	5.486322401828	2
0	11854	5.486322401828	3
0	11875	5.494826401828	2
0	11897	5.510300217269	3
0	11907	5.518804217269	2
0	11907	5.518804217269	3
0	11934	5.527308217269	2
0	11934	5.527308217269	3
0	11964	5.535812217269	2
0	11964	5.535812217269	3
0	11985	5.544316217269	2
0	11985	5.544316217269	3
0	12011	5.552820217269	2
0	12011	5.552820217269	3
0	12032	5.561324217269	2
0	12032	5.561324217269	3
0	12058	5.569828217269	2
0	12058	5.569828217269	3
0	12083	5.578332217269	2
0	12083	5.578332217269	3
0	12109	5.586836217269	2
0	12109	5.586836217269	3
0	12130	5.595340217269	2
0	12152	5.60716824394	3
0	12162	5.61567224394	2
0	12162	5.61567224394	3
0	12181	5.62417624394	2
0	12201	5.628463042899	3
0	12209	5.636967042899	2
0	12226	5.638188960665	3
0	12247	5.646692960665	2
0	12247	5.646692960665	3
0	12262	5.655196960665	2
0	12262	5.655196960665	3
0	12287	5.663700960665	2
0	12287	5.663700960665	3
0	12325	5.672204960665	2
0	12325	5.672204960665	3
0	12346	5.680708960665	2
0	12346	5.680708960665	3
0	12372	5.689212960665	2
0	12372	5.689212960665	3
0	12393	5.697716960665	2
0	12393	5.697716960665	3
0	12419	5.706220960665	2
0	12419	5.706220960665	3
0	12444	5.714724960665	2
0	12444	5.714724960665	3
0	12470	5.723228960665	2
0	12470	5.723228960665	3
0	12495	5.731732960665	2
0	12495	5.731732960665	3
0	12517	5.740236960665	2
0	12517	5.740236960665	3
0	12542	5.748740960665	2
0	12542	5.748740960665	3
0	12572	5.757244960665	2
0	12572	5.757244960665	3
0	12593	5.765748960665	2
0	12593	5.765748960665	3
0	12615	5.774252960665	2
0	12647	5.789703219809	3
0	12662	5.798207219809	2
0	12662	5.798207219809	3
0	12681	5.806711219809	2
0	12681	5.806711219809	3
0	12703	5.815215219809	2
0	12736	5.837530314119	3
0	12754	5.846034314119	2
0	12754	5.846034314119	3
0	12773	5.854538314119	2
0	12773	5.854538314119	3
0	12799	5.863042314119	2
0	12799	5.863042314119	3
0	12820	5.871546314119	2
0	12820	5.871546314119	3
0	12842	5.880050314119	2
0	12875	5.901004659846	3
0	12885	5.909508659846	2
0	12885	5.909508659846	3
0	12904	5.918012659846	2
0	12926	5.946939515039	3
0	12936	5.955443515039	2
0	12936	5.955443515039	3
0	12955	5.963947515039	2
0	12975	5.973525212147	3
0	12983	5.982029212147	2
0	13000	5.988322276874	3
0	13022	5.996826276874	2
0	13022	5.996826276874	3
0	13033	6.005330276874	2
0	13064	6.019257191921	3
0	13075	6.027761191921	2
0	13075	6.027761191921	3
0	13102	6.036265191921	2
0	13102	6.036265191921	3
0	13124	6.044769191921	2
0	13124	6.044769191921	3
0	13145	6.053273191921	2
0	13167	6.077146741567	3
0	13177	6.085650741567	2
0	13177	6.085650741567	3
0	13196	6.094154741567	2
0	13218	6.107172444793	3
0	13228	6.115676444793	2
0	13228	6.115676444793	3
0	13247	6.124180444793	2
0	13269	6.138380975016	3
0	13275	6.146884975016	2
0	13292	6.147001365039	3
0	13309	6.155505365039	2
0	13317	6.155576975288	3
0	13328	6.164080975288	2
0	13328	6.164080975288	3
0	13353	6.172584975288	2
0	13353	6.172584975288	3
0	13375	6.181088975288	2
0	13408	6.205250229432	3
0	13414	6.213754229432	2
0	13444	6.232053907645	3
0	13451	6.240557907645	2
0	13468	6.245619394025	3
0	13486	6.254123394025	2
0	13494	6.257846832198	3
0	13502	6.266350832198	2
0	13519	6.267385306231	3
0	13544	6.275889306231	2
0	13544	6.275889306231	3
0	13555	6.284393306231	2
0	13555	6.284393306231	3
0	13576	6.292897306231	2
0	13596	6.296412410231	3
0	13604	6.304916410231	2
0	13621	6.308508572717	3
0	13643	6.317012572717	2
0	13643	6.317012572717	3
0	13662	6.325516572717	2
0	13662	6.325516572717	3
0	13686	6.334020572717	2
0	13686	6.334020572717	3
0	13712	6.342524572717	2
0	13712	6.342524572717	3
0	13741	6.351028572717	2
0	13741	6.351028572717	3
0	13767	6.359532572717	2
0	13767	6.359532572717	3
0	13788	6.368036572717	2
0	13788	6.368036572717	3
0	13810	6.376540572717	2
0	13810	6.376540572717	3
0	13839	6.385044572717	2
0	13839	6.385044572717	3
0	13861	6.393548572717	2
0	13861	6.393548572717	3
0	13882	6.402052572717	2
0	13904	6.422822373844	3
0	13910	6.431326373844	2
0	13927	6.436911215486	3
0	13953	6.445415215486	2
0	13953	6.445415215486	3
0	13968	6.453919215486	2
0	13968	6.453919215486	3
0	13988	6.462423215486	2
0	13988	6.462423215486	3
0	14014	6.470927215486	2
0	14014	6.470927215486	3
0	14043	6.479431215486	2
0	14043	6.479431215486	3
0	14069	6.487935215486	2
0	14069	6.487935215486	3
0	14090	6.496439215486	2
0	14090	6.496439215486	3
0	14112	6.504943215486	2
0	14145	6.526245627924	3
0	14151	6.534749627924	2
0	14181	6.547781705292	3
0	14188	6.556285705292	2
0	14219	6.577333436525	3
0	14225	6.585837436525	2
0	14242	6.590539058891	3
0	14264	6.599043058891	2
0	14264	6.599043058891	3
0	14275	6.607547058891	2
0	14293	6.611376859502	3
0	14311	6.619880859502	2
0	14319	6.623926763015	3
0	14331	6.632430763015	2
0	14331	6.632430763015	3
0	14350	6.640934763015	2
0	14372	6.654519809075	3
0	14378	6.663023809075	2
0	14395	6.663902422152	3
0	14412	6.672406422152	2
0	14423	6.720619164514	3
0	14433	6.729123164514	2
0	14433	6.729123164514	3
0	14452	6.737627164514	2
0	14472	6.746136039627	3
0	14484	6.754640039627	2
0	14484	6.754640039627	3
0	14503	6.763144039627	2
0	14525	6.774594045572	3
0	14531	6.783098045572	2
0	14548	6.783889410408	3
0	14565	6.792393410408	2
0	14576	6.810081977079	3
0	14582	6.818585977079	2
0	14612	6.835535830561	3
0	14623	6.844039830561	2
0	14623	6.844039830561	3
0	14646	6.852543830561	2
0	14646	6.852543830561	3
0	14672	6.861047830561	2
0	14672	6.861047830561	3
0	14697	6.869551830561	2
0	14697	6.869551830561	3
0	14723	6.878055830561	2
0	14723	6.878055830561	3
0	14752	6.886559830561	2
0	14752	6.886559830561	3
0	14774	6.895063830561	2
0	14774	6.895063830561	3
0	14807	6.903567830561	2
0	14807	6.903567830561	3
0	14841	6.912071830561	2
0	14841	6.912071830561	3
0	14866	6.920575830561	2
0	14866	6.920575830561	3
0	14892	6.929079830561	2
0	14892	6.929079830561	3
0	14913	6.937583830561	2
0	14913	6.937583830561	3
0	14935	6.946087830561	2
0	14935	6.946087830561	3
0	14960	6.954591830561	2
0	14960	6.954591830561	3
0	14986	6.963095830561	2
0	14986	6.963095830561	3
0	15007	6.971599830561	2
0	15007	6.971599830561	3
0	15037	6.980103830561	2
0	15037	6.980103830561	3
0	15062	6.988607830561	2
0	15062	6.988607830561	3
0	15092	6.997111830561	2
0	15092	6.997111830561	3
0	15117	7.005615830561	2
0	15117	7.005615830561	3
0	15143	7.014119830561	2
0	15143	7.014119830561	3
0	15164	7.022623830561	2
0	15164	7.022623830561	3
0	15186	7.031127830561	2
0	15186	7.031127830561	3
0	15207	7.039631830561	2
0	15207	7.039631830561	3
0	15233	7.048135830561	2
0	15233	7.048135830561	3
0	15254	7.056639830561	2
0	15274	7.065040548472	3
0	15286	7.073544548472	2
0	15286	7.073544548472	3
0	15309	7.082048548472	2
0	15309	7.082048548472	3
0	15335	7.090552548472	2
0	15335	7.090552548472	3
0	15364	7.099056548472	2
0	15364	7.099056548472	3
0	15390	7.107560548472	2
0	15390	7.107560548472	3
0	15415	7.116064548472	2
0	15415	7.116064548472	3
0	15441	7.124568548472	2
0	15441	7.124568548472	3
0	15470	7.133072548472	2
0	15470	7.133072548472	3
0	15496	7.141576548472	2
0	15496	7.141576548472	3
0	15517	7.150080548472	2
0	15517	7.150080548472	3
0	15547	7.158584548472	2
0	15547	7.158584548472	3
0	15568	7.167088548472	2
0	15568	7.167088548472	3
0	15590	7.175592548472	2
0	15590	7.175592548472	3
0	15611	7.184096548472	2
0	15633	7.194471990986	3
0	15639	7.202975990986	2
0	15656	7.207554938024	3
0	15682	7.216058938024	2
0	15682	7.216058938024	3
0	15693	7.224562938024	2
0	15693	7.224562938024	3
0	15713	7.233066938024	2
0	15735	7.245597352266	3
0	15745	7.254101352266	2
0	15745	7.254101352266	3
0	15768	7.262605352266	2
0	15768	7.262605352266	3
0	15794	7.271109352266	2
0	15794	7.271109352266	3
0	15815	7.279613352266	2
0	15837	7.29482101956	3
0	15847	7.30332501956	2
0	15847	7.30332501956	3
0	15866	7.31182901956	2
0	15888	7.333231019829	3
0	15894	7.341735019829	2
0	15911	7.343991249868	3
0	15933	7.352495249868	2
0	15933	7.352495249868	3
0	15944	7.360999249868	2
0	15961	7.361555141641	3
0	15983	7.370059141641	2
0	15983	7.370059141641	3
0	15994	7.378563141641	2
0	16012	7.37964900499	3
0	16030	7.38815300499	2
0	16039	7.39232629692	3
0	16047	7.40083029692	2
0	16077	7.413018999546	3
0	16092	7.421522999546	2
0	16092	7.421522999546	3
0	16111	7.430026999546	2
0	16111	7.430026999546	3
0	16133	7.438530999546	2
0	16166	7.46976915897	3
0	16176	7.47827315897	2
0	16176	7.47827315897	3
0	16195	7.48677715897	2
0	16217	7.510199806629	3
0	16223	7.518703806629	2
0	16240	7.523578208878	3
0	16262	7.532082208878	2
0	16262	7.532082208878	3
0	16277	7.540586208878	2
0	16277	7.540586208878	3
0	16297	7.549090208878	2
0	16319	7.57500366075	3
0	16337	7.58350766075	2
0	16337	7.58350766075	3
0	16356	7.59201166075	2
0	16356	7.59201166075	3
0	16386	7.60051566075	2
0	16386	7.60051566075	3
0	16415	7.60901966075	2
0	16415	7.60901966075	3
0	16437	7.61752366075	2
0	16437	7.61752366075	3
0	16458	7.62602766075	2
0	16458	7.62602766075	3
0	16488	7.63453166075	2
0	16488	7.63453166075	3
0	16517	7.64303566075	2
0	16517	7.64303566075	3
0	16539	7.65153966075	2
0	16539	7.65153966075	3
0	16564	7.66004366075	2
0	16564	7.66004366075	3
0	16586	7.66854766075	2
0	16586	7.66854766075	3
0	16607	7.67705166075	2
0	16607	7.67705166075	3
0	16629	7.68555566075	2
0	16646	7.686411136594	3
0	16665	7.694915136594	2
0	16676	7.720329424241	3
0	16686	7.728833424241	2
0	16686	7.728833424241	3
0	16709	7.737337424241	2
0	16709	7.737337424241	3
0	16731	7.745841424241	2
0	16763	7.758544418795	3
0	16770	7.767048418795	2
0	16799	7.776764848576	3
0	16810	7.785268848576	2
0	16810	7.785268848576	3
0	16830	7.793772848576	2
0	16850	7.796994592516	3
0	16862	7.805498592516	2
0	16862	7.805498592516	3
0	16881	7.814002592516	2
0	16903	7.826992452984	3
0	16917	7.835496452984	2
0	16917	7.835496452984	3
0	16940	7.844000452984	2
0	16940	7.844000452984	3
0	16970	7.852504452984	2
0	16970	7.852504452984	3
0	16991	7.861008452984	2
0	16991	7.861008452984	3
0	17013	7.869512452984	2
0	17013	7.869512452984	3
0	17034	7.878016452984	2
0	17056	7.897165699269	3
0	17062	7.905669699269	2
0	17093	7.924393328308	3
0	17103	7.932897328308	2
0	17103	7.932897328308	3
0	17126	7.941401328308	2
0	17126	7.941401328308	3
0	17152	7.949905328308	2
0	17152	7.949905328308	3
0	17177	7.958409328308	2
0	17177	7.958409328308	3
0	17199	7.966913328308	2
0	17232	7.993271079953	3
0	17246	8.001775079953	2
0	17246	8.001775079953	3
0	17269	8.010279079953	2
0	17269	8.010279079953	3
0	17307	8.018783079953	2
0	17307	8.018783079953	3
0	17328	8.027287079953	2
0	17328	8.027287079953	3
0	17350	8.035791079953	2
0	17350	8.035791079953	3
0	17375	8.044295079953	2
0	17375	8.044295079953	3
0	17409	8.052799079953	2
0	17409	8.052799079953	3
0	17434	8.061303079953	2
0	17434	8.061303079953	3
0	17456	8.069807079953	2
0	17456	8.069807079953	3
0	17481	8.078311079953	2
0	17481	8.078311079953	3
0	17507	8.086815079953	2
0	17507	8.086815079953	3
0	17528	8.095319079953	2
0	17528	8.095319079953	3
0	17550	8.103823079953	2
0	17550	8.103823079953	3
0	17575	8.112327079953	2
0	17575	8.112327079953	3
0	17597	8.120831079953	2
0	17597	8.120831079953	3
0	17626	8.129335079953	2
0	17626	8.129335079953	3
0	17652	8.137839079953	2
0	17652	8.137839079953	3
0	17673	8.146343079953	2
0	17673	8.146343079953	3
0	17695	8.154847079953	2
0	17712	8.155303845578	3
0	17731	8.163807845578	2
0	17740	8.173246618996	3
0	17752	8.181750618996	2
0	17752	8.181750618996	3
0	17771	8.190254618996	2
0	17791	8.192226006808	3
0	17799	8.200730006808	2
0	17816	8.202120867486	3
0	17837	8.210624867486	2
0	17837	8.210624867486	3
0	17856	8.219128867486	2
0	17856	8.219128867486	3
0	17877	8.227632867486	2
0	17877	8.227632867486	3
0	17907	8.236136867486	2
0	17907	8.236136867486	3
0	17928	8.244640867486	2
0	17928	8.244640867486	3
0	17950	8.253144867486	2
0	17969	8.258313855068	3
0	17987	8.266817855068	2
0	17996	8.272066791489	3
0	18003	8.280570791489	2
0	18033	8.29869833775	3
0	18044	8.30720233775	2
0	18044	8.30720233775	3
0	18063	8.31570633775	2
0	18085	8.331930038065	3
0	18091	8.340434038065	2
0	18122	8.370059205523	3
0	18128	8.378563205523	2
0	18158	8.389153632683	3
0	18165	8.397657632683	2
0	18196	8.447204682072	3
0	18206	8.455708682072	2
0	18206	8.455708682072	3
0	18225	8.464212682072	2
0	18247	8.475104313479	3
0	18253	8.483608313479	2
0	18282	8.49277566783	3
0	18289	8.50127966783	2
0	18307	8.508073885261	3
0	18325	8.516577885261	2
0	18334	8.520116177916	3
0	18345	8.528620177916	2
0	18345	8.528620177916	3
0	18368	8.537124177916	2
0	18368	8.537124177916	3
0	18406	8.545628177916	2
0	18406	8.545628177916	3
0	18435	8.554132177916	2
0	18435	8.554132177916	3
0	18465	8.562636177916	2
0	18465	8.562636177916	3
0	18486	8.571140177916	2
0	18486	8.571140177916	3
0	18508	8.579644177916	2
0	18508	8.579644177916	3
0	18533	8.588148177916	2
0	18533	8.588148177916	3
0	18555	8.596652177916	2
0	18555	8.596652177916	3
0	18576	8.605156177916	2
0	18576	8.605156177916	3
0	18602	8.613660177916	2
0	18602	8.613660177916	3
0	18623	8.622164177916	2
0	18623	8.622164177916	3
0	18645	8.630668177916	2
0	18676	8.640104220043	3
0	18687	8.648608220043	2
0	18687	8.648608220043	3
0	18707	8.657112220043	2
0	18727	8.659925473703	3
0	18739	8.668429473703	2
0	18739	8.668429473703	3
0	18766	8.676933473703	2
0	18766	8.676933473703	3
0	18796	8.685437473703	2
0	18796	8.685437473703	3
0	18829	8.693941473703	2
0	18829	8.693941473703	3
0	18851	8.702445473703	2
0	18851	8.702445473703	3
0	18872	8.710949473703	2
0	18872	8.710949473703	3
0	18898	8.719453473703	2
0	18898	8.719453473703	3
0	18919	8.727957473703	2
0	18919	8.727957473703	3
0	18949	8.736461473703	2
0	18949	8.736461473703	3
0	18970	8.744965473703	2
0	18970	8.744965473703	3
0	18992	8.753469473703	2
0	18992	8.753469473703	3
0	19013	8.761973473703	2
0	19032	8.763139158918	3
0	19039	8.771643158918	2
0	19058	8.773540051766	3
0	19080	8.782044051766	2
0	19080	8.782044051766	3
0	19091	8.790548051766	2
0	19109	8.793181947834	3
0	19131	8.801685947834	2
0	19131	8.801685947834	3
0	19150	8.810189947834	2
0	19150	8.810189947834	3
0	19174	8.818693947834	2
0	19174	8.818693947834	3
0	19204	8.827197947834	2
0	19204	8.827197947834	3
0	19225	8.835701947834	2
0	19225	8.835701947834	3
0	19251	8.844205947834	2
0	19251	8.844205947834	3
0	19276	8.852709947834	2
0	19276	8.852709947834	3
0	19302	8.861213947834	2
0	19302	8.861213947834	3
0	19327	8.869717947834	2
0	19327	8.869717947834	3
0	19349	8.878221947834	2
0	19349	8.878221947834	3
0	19374	8.886725947834	2
0	19374	8.886725947834	3
0	19400	8.895229947834	2
0	19400	8.895229947834	3
0	19429	8.903733947834	2
0	19429	8.903733947834	3
0	19451	8.912237947834	2
0	19451	8.912237947834	3
0	19476	8.920741947834	2
0	19476	8.920741947834	3
0	19498	8.929245947834	2
0	19531	8.962740194827	3
0	19537	8.971244194827	2
0	19554	8.973996292214	3
0	19576	8.982500292214	2
0	19576	8.982500292214	3
0	19587	8.991004292214	2
0	19605	8.998248904479	3
0	19623	9.006752904479	2
0	19633	9.019970236617	3
0	19643	9.028474236617	2
0	19643	9.028474236617	3
0	19666	9.036978236617	2
0	19666	9.036978236617	3
0	19688	9.045482236617	2
0	19721	9.065958642333	3
0	19727	9.074462642333	2
0	19744	9.08132819821	3
0	19774	9.08983219821	2
0	19774	9.08983219821	3
0	19785	9.09833619821	2
0	19785	9.09833619821	3
0	19805	9.10684019821	2
0	19805	9.10684019821	3
0	19827	9.11534419821	2
0	19860	9.135676225668	3
0	19866	9.144180225668	2
0	19883	9.145950219557	3
0	19901	9.154454219557	2
0	19909	9.158333267992	3
0	19921	9.166837267992	2
0	19921	9.166837267992	3
0	19940	9.175341267992	2
0	19960	9.17699382465	3
0	19968	9.18549782465	2
0	19985	9.187173026368	3
0	20003	9.195677026368	2
0	20012	9.205056015408	3
0	20019	9.213560015408	2
0	20050	9.232699297928	3
0	20060	9.241203297928	2
0	20060	9.241203297928	3
0	20079	9.249707297928	2
0	20101	9.266000692313	3
0	20111	9.274504692313	2
0	20111	9.274504692313	3
0	20134	9.283008692313	2
0	20134	9.283008692313	3
0	20160	9.291512692313	2
0	20160	9.291512692313	3
0	20185	9.300016692313	2
0	20185	9.300016692313	3
0	20207	9.308520692313	2
0	20226	9.310926089199	3
0	20244	9.319430089199	2
0	20253	9.327398777269	3
0	20260	9.335902777269	2
0	20277	9.342735812796	3
0	20299	9.351239812796	2
0	20299	9.351239812796	3
0	20318	9.359743812796	2
0	20318	9.359743812796	3
0	20342	9.368247812796	2
0	20342	9.368247812796	3
0	20368	9.376751812796	2
0	20368	9.376751812796	3
0	20389	9.385255812796	2
0	20389	9.385255812796	3
0	20411	9.393759812796	2
0	20444	9.416373197676	3
0	20458	9.424877197676	2
0	20458	9.424877197676	3
0	20477	9.433381197676	2
0	20477	9.433381197676	3
0	20503	9.441885197676	2
0	20503	9.441885197676	3
0	20524	9.450389197676	2
0	20546	9.481700507008	3
0	20552	9.490204507008	2
0	20581	9.499984550372	3
0	20596	9.508488550372	2
0	20596	9.508488550372	3
0	20620	9.516992550372	2
0	20620	9.516992550372	3
0	20642	9.525496550372	2
0	20642	9.525496550372	3
0	20663	9.534000550372	2
0	20682	9.535325978639	3
0	20693	9.543829978639	2
0	20693	9.543829978639	3
0	20718	9.552333978639	2
0	20718	9.552333978639	3
0	20740	9.560837978639	2
0	20772	9.578980078214	3
0	20779	9.587484078214	2
0	20808	9.59673497991	3
0	20815	9.60523897991	2
0	20833	9.608064674935	3
0	20855	9.616568674935	2
0	20855	9.616568674935	3
0	20866	9.625072674935	2
0	20897	9.640268783912	3
0	20904	9.648772783912	2
0	20921	9.653713092905	3
0	20951	9.662217092905	2
0	20951	9.662217092905	3
0	20962	9.670721092905	2
0	20962	9.670721092905	3
0	20982	9.679225092905	2
0	20982	9.679225092905	3
0	21004	9.687729092905	2
0	21021	9.688628186305	3
0	21040	9.697132186305	2
0	21049	9.702805051088	3
0	21057	9.711309051088	2
0	21074	9.717460413211	3
0	21092	9.725964413211	2
0	21100	9.728338428538	3
0	21108	9.736842428538	2
0	21125	9.737584876387	3
0	21146	9.746088876387	2
0	21146	9.746088876387	3
0	21157	9.754592876387	2
0	21175	9.755882542356	3
0	21193	9.764386542356	2
0	21202	9.768621182152	3
0	21214	9.777125182152	2
0	21214	9.777125182152	3
0	21233	9.785629182152	2
0	21253	9.787463551914	3
0	21269	9.795967551914	2
0	21269	9.795967551914	3
0	21296	9.804471551914	2
0	21296	9.804471551914	3
0	21322	9.812975551914	2
0	21322	9.812975551914	3
0	21347	9.821479551914	2
0	21347	9.821479551914	3
0	21373	9.829983551914	2
0	21373	9.829983551914	3
0	21398	9.838487551914	2
0	21398	9.838487551914	3
0	21420	9.846991551914	2
0	21420	9.846991551914	3
0	21453	9.855495551914	2
0	21453	9.855495551914	3
0	21483	9.863999551914	2
0	21483	9.863999551914	3
0	21512	9.872503551914	2
0	21512	9.872503551914	3
0	21538	9.881007551914	2
0	21538	9.881007551914	3
0	21559	9.889511551914	2
0	21559	9.889511551914	3
0	21589	9.898015551914	2
0	21589	9.898015551914	3
0	21614	9.906519551914	2
0	21614	9.906519551914	3
0	21640	9.915023551914	2
0	21640	9.915023551914	3
0	21661	9.923527551914	2
0	21661	9.923527551914	3
0	21687	9.932031551914	2
0	21687	9.932031551914	3
0	21708	9.940535551914	2
0	21708	9.940535551914	3
0	21730	9.949039551914	2
0	21730	9.949039551914	3
0	21755	9.957543551914	2
0	21755	9.957543551914	3
0	21793	9.966047551914	2
0	21793	9.966047551914	3
0	21818	9.974551551914	2
0	21818	9.974551551914	3
0	21840	9.983055551914	2
0	21840	9.983055551914	3
0	21869	9.991559551914	2
0	21869	9.991559551914	3
0	21895	10.000063551914	2
0	21895	10.000063551914	3
0	21916	10.008567551914	2
0	21916	10.008567551914	3
0	21942	10.017071551914	2
0	21942	10.017071551914	3
0	21963	10.025575551914	2
0	21963	10.025575551914	3
0	21989	10.034079551914	2
0	21989	10.034079551914	3
0	22014	10.042583551914	2
0	22014	10.042583551914	3
0	22040	10.051087551914	2
0	22040	10.051087551914	3
0	22061	10.059591551914	2
0	22061	10.059591551914	3
0	22083	10.068095551914	2
0	22083	10.068095551914	3
0	22104	10.076599551914	2
0	22104	10.076599551914	3
0	22130	10.085103551914	2
0	22130	10.085103551914	3
0	22155	10.093607551914	2
0	22155	10.093607551914	3
0	22181	10.102111551914	2
0	22181	10.102111551914	3
0	22206	10.110615551914	2
0	22206	10.110615551914	3
0	22232	10.119119551914	2
0	22232	10.119119551914	3
0	22253	10.127623551914	2
0	22275	10.157071354534	3
0	22281	10.165575354534	2
0	22311	10.181768448666	3
0	22322	10.190272448666	2
0	22322	10.190272448666	3
0	22349	10.198776448666	2
0	22349	10.198776448666	3
0	22371	10.207280448666	2
0	22371	10.207280448666	3
0	22392	10.215784448666	2
0	22412	10.224033411742	3
0	22420	10.232537411742	2
0	22450	10.246394043548	3
0	22457	10.254898043548	2
0	22474	10.254957377387	3
0	22495	10.263461377387	2
0	22495	10.263461377387	3
0	22514	10.271965377387	2
0	22514	10.271965377387	3
0	22535	10.280469377387	2
0	22535	10.280469377387	3
0	22561	10.288973377387	2
0	22561	10.288973377387	3
0	22582	10.297477377387	2
0	22601	10.297696463123	3
0	22612	10.306200463123	2
0	22612	10.306200463123	3
0	22637	10.314704463123	2
0	22637	10.314704463123	3
0	22667	10.323208463123	2
0	22667	10.323208463123	3
0	22692	10.331712463123	2
0	22692	10.331712463123	3
0	22718	10.340216463123	2
0	22718	10.340216463123	3
0	22739	10.348720463123	2
0	22739	10.348720463123	3
0	22765	10.357224463123	2
0	22765	10.357224463123	3
0	22790	10.365728463123	2
0	22790	10.365728463123	3
0	22816	10.374232463123	2
0	22816	10.374232463123	3
0	22837	10.382736463123	2
0	22856	10.383716966672	3
0	22863	10.392220966672	2
0	22895	10.403620087315	3
0	22906	10.412124087315	2
0	22906	10.412124087315	3
0	22925	10.420628087315	2
0	22945	10.42545803215	3
0	22961	10.43396203215	2
0	22961	10.43396203215	3
0	22980	10.44246603215	2
0	22980	10.44246603215	3
0	23002	10.45097003215	2
0	23035	10.479320877011	3
0	23049	10.487824877011	2
0	23049	10.487824877011	3
0	23072	10.496328877011	2
0	23072	10.496328877011	3
0	23102	10.504832877011	2
0	23102	10.504832877011	3
0	23123	10.513336877011	2
0	23123	10.513336877011	3
0	23149	10.521840877011	2
0	23149	10.521840877011	3
0	23174	10.530344877011	2
0	23174	10.530344877011	3
0	23196	10.538848877011	2
0	23196	10.538848877011	3
0	23217	10.547352877011	2
0	23239	10.567152470204	3
0	23245	10.575656470204	2
0	23275	10.592456479987	3
0	23282	10.600960479987	2
0	23313	10.664051308384	3
0	23327	10.672555308384	2
0	23327	10.672555308384	3
0	23350	10.681059308384	2
0	23350	10.681059308384	3
0	23384	10.689563308384	2
0	23384	10.689563308384	3
0	23409	10.698067308384	2
0	23409	10.698067308384	3
0	23431	10.706571308384	2
0	23431	10.706571308384	3
0	23452	10.715075308384	2
0	23452	10.715075308384	3
0	23474	10.723579308384	2
0	23474	10.723579308384	3
0	23499	10.732083308384	2
0	23499	10.732083308384	3
0	23521	10.740587308384	2
0	23540	10.743212377798	3
0	23562	10.751716377798	2
0	23562	10.751716377798	3
0	23573	10.760220377798	2
0	23604	10.774028219123	3
0	23611	10.782532219123	2
0	23628	10.788367356723	3
0	23650	10.796871356723	2
0	23650	10.796871356723	3
0	23665	10.805375356723	2
0	23665	10.805375356723	3
0	23693	10.813879356723	2
0	23693	10.813879356723	3
0	23715	10.822383356723	2
0	23715	10.822383356723	3
0	23740	10.830887356723	2
0	23740	10.830887356723	3
0	23762	10.839391356723	2
0	23795	10.861792680135	3
0	23801	10.870296680135	2
0	23818	10.874712583921	3
0	23836	10.883216583921	2
0	23845	10.890204136388	3
0	23856	10.898708136388	2
0	23856	10.898708136388	3
0	23875	10.907212136388	2
0	23895	10.908911253308	3
0	23907	10.917415253308	2
0	23907	10.917415253308	3
0	23934	10.925919253308	2
0	23934	10.925919253308	3
0	23956	10.934423253308	2
0	23956	10.934423253308	3
0	23981	10.942927253308	2
0	23981	10.942927253308	3
0	24007	10.951431253308	2
0	24007	10.951431253308	3
0	24032	10.959935253308	2
0	24032	10.959935253308	3
0	24054	10.968439253308	2
0	24087	11.008408963935	3
0	24093	11.016912963935	2
0	24110	11.01864965217	3
0	24128	11.02715365217	2
0	24138	11.053443636014	3
0	24144	11.061947636014	2
0	24161	11.063289246829	3
0	24178	11.071793246829	2
0	24187	11.073268962261	3
0	24202	11.081772962261	2
0	24202	11.081772962261	3
0	24226	11.090276962261	2
0	24226	11.090276962261	3
0	24248	11.098780962261	2
0	24248	11.098780962261	3
0	24277	11.107284962261	2
0	24277	11.107284962261	3
0	24299	11.115788962261	2
0	24299	11.115788962261	3
0	24320	11.124292962261	2
0	24342	11.145679406818	3
0	24348	11.154183406818	2
0	24365	11.161901569101	3
0	24387	11.170405569101	2
0	24387	11.170405569101	3
0	24402	11.178909569101	2
0	24402	11.178909569101	3
0	24426	11.187413569101	2
0	24426	11.187413569101	3
0	24448	11.195917569101	2
0	24467	11.198153830046	3
0	24485	11.206657830046	2
0	24493	11.208695775932	3
0	24501	11.217199775932	2
0	24518	11.225655013715	3
0	24540	11.234159013715	2
0	24540	11.234159013715	3
0	24551	11.242663013715	2
0	24583	11.261441840502	3
0	24589	11.269945840502	2
0	24620	11.320986233441	3
0	24630	11.329490233441	2
0	24630	11.329490233441	3
0	24653	11.337994233441	2
0	24653	11.337994233441	3
0	24675	11.346498233441	2
0	24706	11.355670041662	3
0	24721	11.364174041662	2
0	24721	11.364174041662	3
0	24741	11.372678041662	2
0	24741	11.372678041662	3
0	24767	11.381182041662	2
0	24767	11.381182041662	3
0	24788	11.389686041662	2
0	24810	11.425431793889	3
0	24820	11.433935793889	2
0	24820	11.433935793889	3
1	0	0	0
1	0	0	0
1	0	0	2
2	0	0	0
2	0	0	0
2	0	0	2
2	27	0.030819922865	3
2	47	0.039323922865	2
2	69	0.047827922865	3
2	88	0.056331922865	2
2	128	0.071004087138	3
2	143	0.079508087138	2
2	180	0.098033573224	3
2	194	0.106537573224	2
2	229	0.115507859279	3
2	245	0.124011859279	2
2	282	0.15882087607	3
2	296	0.16732487607	2
2	333	0.185126352905	3
2	347	0.193630352905	2
2	377	0.212194887876	3
2	394	0.220698887876	2
2	428	0.234645728231	3
2	445	0.243149728231	2
2	479	0.260416314999	3
2	496	0.268920314999	2
2	537	0.286722707062	3
2	561	0.295226707062	2
2	586	0.303730707062	3
2	616	0.312234707062	2
2	653	0.320738707062	3
2	675	0.329242707062	2
2	700	0.337746707062	3
2	718	0.346250707062	2
2	747	0.354754707062	3
2	769	0.363258707062	2
2	794	0.371762707062	3
2	816	0.380266707062	2
2	841	0.388770707062	3
2	857	0.397274707062	2
2	894	0.408893173763	3
2	908	0.417397173763	2
2	938	0.452150472685	3
2	959	0.460654472685	2
2	995	0.473360482263	3
2	1016	0.481864482263	2
2	1038	0.490368482263	3
2	1065	0.498872482263	2
2	1096	0.508831694392	3
2	1118	0.517335694392	2
2	1140	0.525839694392	3
2	1150	0.534343694392	2
2	1179	0.555901054724	3
2	1196	0.564405054724	2
2	1230	0.580691202629	3
2	1238	0.589195202629	2
2	1267	0.645012406832	3
2	1288	0.653516406832	2
2	1324	0.663979397076	3
2	1339	0.672483397076	2
2	1374	0.681343914109	3
2	1390	0.689847914109	2
2	1425	0.699771948486	3
2	1441	0.708275948486	2
2	1471	0.722430242605	3
2	1479	0.730934242605	2
2	1508	0.758276521307	3
2	1529	0.766780521307	2
2	1565	0.779815753878	3
2	1586	0.788319753878	2
2	1608	0.796823753878	3
2	1618	0.805327753878	2
2	1647	0.839497784886	3
2	1655	0.848001784886	2
2	1684	0.864761640496	3
2	1713	0.873265640496	2
2	1748	0.881816643616	3
2	1766	0.890320643616	2
2	1791	0.898824643616	3
2	1807	0.907328643616	2
2	1844	0.935135593051	3
2	1864	0.943639593051	2
2	1886	0.952143593051	3
2	1905	0.960647593051	2
2	1939	0.987841710689	3
2	1947	0.996345710689	2
2	1983	1.017888652086	3
2	2003	1.026392652086	2
2	2025	1.034896652086	3
2	2035	1.043400652086	2
2	2064	1.054854405926	3
2	2081	1.063358405926	2
2	2115	1.093216369457	3
2	2123	1.101720369457	2
2	2167	1.123700023553	3
2	2183	1.132204023553	2
2	2208	1.140708023553	3
2	2230	1.149212023553	2
2	2259	1.157716023553	3
2	2275	1.166220023553	2
2	2312	1.185522852655	3
2	2332	1.194026852655	2
2	2365	1.202530852655	3
2	2391	1.211034852655	2
2	2420	1.219538852655	3
2	2438	1.228042852655	2
2	2471	1.236546852655	3
2	2493	1.245050852655	2
2	2518	1.253554852655	3
2	2540	1.262058852655	2
2	2569	1.270562852655	3
2	2587	1.279066852655	2
2	2609	1.287570852655	3
2	2628	1.296074852655	2
2	2662	1.312548168658	3
2	2670	1.321052168658	2
2	2699	1.33920625144	3
2	2716	1.34771025144	2
2	2749	1.361385547002	3
2	2758	1.369889547002	2
2	2794	1.406154178733	3
2	2808	1.414658178733	2
2	2845	1.425118321204	3
2	2859	1.433622321204	2
2	2900	1.444990375365	3
2	2916	1.453494375365	2
2	2938	1.461998375365	3
2	2948	1.470502375365	2
2	2977	1.493320612624	3
2	2994	1.501824612624	2
2	3028	1.516908968159	3
2	3049	1.525412968159	2
2	3084	1.534555381415	3
2	3106	1.543059381415	2
2	3135	1.551563381415	3
2	3157	1.560067381415	2
2	3179	1.568571381415	3
2	3202	1.577075381415	2
2	3237	1.585760551975	3
2	3253	1.594264551975	2
2	3281	1.603731907483	3
2	3291	1.612235907483	2
2	3335	1.629021278742	3
2	3351	1.637525278742	2
2	3384	1.646029278742	3
2	3402	1.654533278742	2
2	3427	1.663037278742	3
2	3443	1.671541278742	2
2	3484	1.688442743744	3
2	3508	1.696946743744	2
2	3533	1.705450743744	3
2	3551	1.713954743744	2
2	3573	1.722458743744	3
2	3583	1.730962743744	2
2	3619	1.748798370797	3
2	3639	1.757302370797	2
2	3672	1.765806370797	3
2	3694	1.774310370797	2
2	3723	1.782814370797	3
2	3741	1.791318370797	2
2	3770	1.799822370797	3
2	3786	1.808326370797	2
2	3823	1.83313816826	3
2	3847	1.84164216826	2
2	3872	1.85014616826	3
2	3894	1.85865016826	2
2	3916	1.86715416826	3
2	3926	1.87565816826	2
2	3966	1.886448760978	3
2	3986	1.894952760978	2
2	4011	1.903456760978	3
2	4027	1.911960760978	2
2	4064	1.943621891131	3
2	4088	1.952125891131	2
2	4125	1.960629891131	3
2	4143	1.969133891131	2
2	4172	1.977637891131	3
2	4190	1.986141891131	2
2	4215	1.994645891131	3
2	4231	2.003149891131	2
2	4261	2.017187375141	3
2	4278	2.025691375141	2
2	4318	2.042326871365	3
2	4347	2.050830871365	2
2	4376	2.059334871365	3
2	4394	2.067838871365	2
2	4419	2.076342871365	3
2	4441	2.084846871365	2
2	4463	2.093350871365	3
2	4473	2.101854871365	2
2	4502	2.123457748969	3
2	4519	2.131961748969	2
2	4553	2.14559898191	3
2	4561	2.15410298191	2
2	4596	2.163968956625	3
2	4617	2.172472956625	2
2	4646	2.180976956625	3
2	4662	2.189480956625	2
2	4699	2.245868794264	3
2	4713	2.254372794264	2
2	4741	2.263239565867	3
2	4751	2.271743565867	2
2	4780	2.287205629477	3
2	4797	2.295709629477	2
2	4831	2.343936966248	3
2	4856	2.352440966248	2
2	4891	2.362136726889	3
2	4913	2.370640726889	2
2	4942	2.379144726889	3
2	4960	2.387648726889	2
2	4982	2.396152726889	3
2	4992	2.404656726889	2
2	5021	2.421988893255	3
2	5046	2.430492893255	2
2	5082	2.444186548089	3
2	5099	2.452690548089	2
2	5121	2.461194548089	3
2	5140	2.469698548089	2
2	5174	2.515983009098	3
2	5191	2.524487009098	2
2	5224	2.536903992608	3
2	5233	2.545407992608	2
2	5262	2.560044314251	3
2	5279	2.568548314251	2
2	5312	2.584891494943	3
2	5330	2.593395494943	2
2	5364	2.608975254268	3
2	5381	2.617479254268	2
2	5421	2.632529693509	3
2	5436	2.641033693509	2
2	5477	2.667365866757	3
2	5493	2.675869866757	2
2	5515	2.684373866757	3
2	5534	2.692877866757	2
2	5568	2.726038120678	3
2	5585	2.734542120678	2
2	5629	2.746996321584	3
2	5654	2.755500321584	2
2	5679	2.764004321584	3
2	5697	2.772508321584	2
2	5726	2.781012321584	3
2	5742	2.789516321584	2
2	5779	2.802797339676	3
2	5799	2.811301339676	2
2	5821	2.819805339676	3
2	5840	2.828309339676	2
2	5873	2.84519186724	3
2	5882	2.85369586724	2
2	5918	2.86528850864	3
2	5932	2.87379250864	2
2	5969	2.907690807355	3
2	5983	2.916194807355	2
2	6020	2.930269279957	3
2	6034	2.938773279957	2
2	6062	2.94800344407	3
2	6085	2.95650744407	2
2	6121	2.968977911709	3
2	6142	2.977481911709	2
2	6164	2.985985911709	3
2	6183	2.994489911709	2
2	6228	3.015607842888	3
2	6244	3.024111842888	2
2	6273	3.032615842888	3
2	6295	3.041119842888	2
2	6317	3.049623842888	3
2	6336	3.058127842888	2
2	6380	3.074424965546	3
2	6405	3.082928965546	2
2	6430	3.091432965546	3
2	6456	3.099936965546	2
2	6485	3.108440965546	3
2	6507	3.116944965546	2
2	6532	3.125448965546	3
2	6558	3.133952965546	2
2	6591	3.142456965546	3
2	6609	3.150960965546	2
2	6642	3.159464965546	3
2	6668	3.167968965546	2
2	6693	3.176472965546	3
2	6711	3.184976965546	2
2	6740	3.193480965546	3
2	6758	3.201984965546	2
2	6783	3.210488965546	3
2	6799	3.218992965546	2
2	6829	3.244142275169	3
2	6850	3.252646275169	2
2	6886	3.267234560849	3
2	6907	3.275738560849	2
2	6929	3.284242560849	3
2	6948	3.292746560849	2
2	6989	3.309957096142	3
2	7009	3.318461096142	2
2	7031	3.326965096142	3
2	7041	3.335469096142	2
2	7077	3.345532102765	3
2	7091	3.354036102765	2
2	7128	3.368752570737	3
2	7142	3.377256570737	2
2	7179	3.391537246133	3
2	7193	3.400041246133	2
2	7230	3.422147640303	3
2	7244	3.430651640303	2
2	7274	3.442551704694	3
2	7282	3.451055704694	2
2	7311	3.486467592663	3
2	7319	3.494971592663	2
2	7348	3.510260579518	3
2	7356	3.518764579518	2
2	7384	3.528453406676	3
2	7393	3.536957406676	2
2	7422	3.578875719791	3
2	7443	3.587379719791	2
2	7487	3.604187828155	3
2	7508	3.612691828155	2
2	7541	3.621195828155	3
2	7559	3.629699828155	2
2	7584	3.638203828155	3
2	7602	3.646707828155	2
2	7624	3.655211828155	3
2	7643	3.663715828155	2
2	7683	3.680364474241	3
2	7704	3.688868474241	2
2	7726	3.697372474241	3
2	7745	3.705876474241	2
2	7785	3.720438507629	3
2	7810	3.728942507629	2
2	7835	3.737446507629	3
2	7857	3.745950507629	2
2	7879	3.754454507629	3
2	7889	3.762958507629	2
2	7925	3.783257703119	3
2	7939	3.791761703119	2
2	7976	3.8246380494	3
2	8000	3.8331420494	2
2	8025	3.8416460494	3
2	8041	3.8501500494	2
2	8078	3.864047224907	3
2	8092	3.872551224907	2
2	8120	3.881085922642	3
2	8130	3.889589922642	2
2	8166	3.90104151201	3
2	8180	3.90954551201	2
2	8210	3.924570675605	3
2	8218	3.933074675605	2
2	8258	3.945806113484	3
2	8278	3.954310113484	2
2	8307	3.962814113484	3
2	8329	3.971318113484	2
2	8358	3.979822113484	3
2	8380	3.988326113484	2
2	8409	3.996830113484	3
2	8431	4.005334113484	2
2	8456	4.013838113484	3
2	8478	4.022342113484	2
2	8507	4.030846113484	3
2	8523	4.039350113484	2
2	8553	4.056972850599	3
2	8574	4.065476850599	2
2	8613	4.074020947386	3
2	8631	4.082524947386	2
2	8653	4.091028947386	3
2	8672	4.099532947386	2
2	8721	4.118598877538	3
2	8737	4.127102877538	2
2	8762	4.135606877538	3
2	8788	4.144110877538	2
2	8813	4.152614877538	3
2	8835	4.161118877538	2
2	8857	4.169622877538	3
2	8867	4.178126877538	2
2	8896	4.199609241052	3
2	8913	4.208113241052	2
2	8953	4.223183962864	3
2	8968	4.231687962864	2
2	9005	4.256103756471	3
2	9029	4.264607756471	2
2	9058	4.273111756471	3
2	9076	4.281615756471	2
2	9098	4.290119756471	3
2	9117	4.298623756471	2
2	9161	4.308730807009	3
2	9182	4.317234807009	2
2	9207	4.325738807009	3
2	9237	4.334242807009	2
2	9270	4.342746807009	3
2	9296	4.351250807009	2
2	9321	4.359754807009	3
2	9339	4.368258807009	2
2	9364	4.376762807009	3
2	9390	4.385266807009	2
2	9415	4.393770807009	3
2	9437	4.402274807009	2
2	9462	4.410778807009	3
2	9478	4.419282807009	2
2	9519	4.430996462644	3
2	9539	4.439500462644	2
2	9564	4.448004462644	3
2	9586	4.456508462644	2
2	9619	4.465012462644	3
2	9637	4.473516462644	2
2	9666	4.482020462644	3
2	9682	4.490524462644	2
2	9727	4.505647113169	3
2	9747	4.514151113169	2
2	9772	4.522655113169	3
2	9790	4.531159113169	2
2	9812	4.539663113169	3
2	9822	4.548167113169	2
2	9851	4.558646209204	3
2	9872	4.567150209204	2
2	9907	4.576942431972	3
2	9923	4.585446431972	2
2	9960	4.605188458839	3
2	9974	4.613692458839	2
2	10015	4.665848910251	3
2	10035	4.674352910251	2
2	10060	4.682856910251	3
2	10076	4.691360910251	2
2	10106	4.715935527136	3
2	10114	4.724439527136	2
2	10150	4.749062780604	3
2	10164	4.757566780604	2
2	10194	4.771789808902	3
2	10211	4.780293808902	2
2	10255	4.796562431068	3
2	10276	4.805066431068	2
2	10305	4.813570431068	3
2	10323	4.822074431068	2
2	10352	4.830578431068	3
2	10368	4.839082431068	2
2	10396	4.847726326778	3
2	10415	4.856230326778	2
2	10472	4.872683697131	3
2	10488	4.881187697131	2
2	10513	4.889691697131	3
2	10535	4.898195697131	2
2	10564	4.906699697131	3
2	10586	4.915203697131	2
2	10615	4.923707697131	3
2	10633	4.932211697131	2
2	10666	4.940715697131	3
2	10688	4.949219697131	2
2	10713	4.957723697131	3
2	10735	4.966227697131	2
2	10764	4.974731697131	3
2	10786	4.983235697131	2
2	10811	4.991739697131	3
2	10827	5.000243697131	2
2	10864	5.031842346	3
2	10892	5.040346346	2
2	10917	5.048850346	3
2	10935	5.057354346	2
2	10964	5.065858346	3
2	10980	5.074362346	2
2	11010	5.086964489736	3
2	11027	5.095468489736	2
2	11067	5.107729109905	3
2	11082	5.116233109905	2
2	11119	5.128658121149	3
2	11139	5.137162121149	2
2	11168	5.145666121149	3
2	11190	5.154170121149	2
2	11212	5.162674121149	3
2	11222	5.171178121149	2
2	11251	5.192540135382	3
2	11259	5.201044135382	2
2	11295	5.21562499823	3
2	11315	5.22412899823	2
2	11337	5.23263299823	3
2	11347	5.24113699823	2
2	11376	5.25133652201	3
2	11393	5.25984052201	2
2	11426	5.275923833554	3
2	11435	5.284427833554	2
2	11471	5.316179463535	3
2	11491	5.324683463535	2
2	11513	5.333187463535	3
2	11532	5.341691463535	2
2	11565	5.352283244578	3
2	11574	5.360787244578	2
2	11610	5.384163041069	3
2	11630	5.392667041069	2
2	11659	5.401171041069	3
2	11675	5.409675041069	2
2	11720	5.435120427418	3
2	11740	5.443624427418	2
2	11765	5.452128427418	3
2	11783	5.460632427418	2
2	11805	5.469136427418	3
2	11828	5.477640427418	2
2	11863	5.486323074148	3
2	11879	5.494827074148	2
2	11916	5.518804889589	3
2	11940	5.527308889589	2
2	11973	5.535812889589	3
2	11991	5.544316889589	2
2	12020	5.552820889589	3
2	12038	5.561324889589	2
2	12067	5.569828889589	3
2	12089	5.578332889589	2
2	12118	5.586836889589	3
2	12134	5.595340889589	2
2	12171	5.61567291626	3
2	12185	5.62417691626	2
2	12215	5.636967715219	3
2	12236	5.645471715219	2
2	12271	5.655197632985	3
2	12293	5.663701632985	2
2	12334	5.672205632985	3
2	12352	5.680709632985	2
2	12381	5.689213632985	3
2	12399	5.697717632985	2
2	12428	5.706221632985	3
2	12450	5.714725632985	2
2	12479	5.723229632985	3
2	12501	5.731733632985	2
2	12526	5.740237632985	3
2	12548	5.748741632985	2
2	12581	5.757245632985	3
2	12599	5.765749632985	2
2	12621	5.774253632985	3
2	12631	5.782757632985	2
2	12671	5.798207892129	3
2	12687	5.806711892129	2
2	12709	5.815215892129	3
2	12719	5.823719892129	2
2	12763	5.846034986439	3
2	12779	5.854538986439	2
2	12808	5.863042986439	3
2	12826	5.871546986439	2
2	12848	5.880050986439	3
2	12858	5.888554986439	2
2	12894	5.909509332166	3
2	12908	5.918013332166	2
2	12945	5.955444187359	3
2	12959	5.963948187359	2
2	12989	5.982029884467	3
2	13006	5.990533884467	2
2	13039	6.005330949194	3
2	13048	6.013834949194	2
2	13084	6.027761864241	3
2	13108	6.036265864241	2
2	13133	6.044769864241	3
2	13149	6.053273864241	2
2	13186	6.085651413887	3
2	13200	6.094155413887	2
2	13237	6.115677117113	3
2	13251	6.124181117113	2
2	13281	6.146885647336	3
2	13298	6.155389647336	2
2	13337	6.164081647608	3
2	13359	6.172585647608	2
2	13381	6.181089647608	3
2	13391	6.189593647608	2
2	13420	6.213754901752	3
2	13428	6.222258901752	2
2	13457	6.240558579965	3
2	13474	6.249062579965	2
2	13508	6.266351504518	3
2	13533	6.274855504518	2
2	13564	6.284393978551	3
2	13580	6.292897978551	2
2	13610	6.304917082551	3
2	13631	6.313421082551	2
2	13671	6.325517245037	3
2	13692	6.334021245037	2
2	13721	6.342525245037	3
2	13747	6.351029245037	2
2	13776	6.359533245037	3
2	13794	6.368037245037	2
2	13819	6.376541245037	3
2	13845	6.385045245037	2
2	13870	6.393549245037	3
2	13886	6.402053245037	2
2	13916	6.431327046164	3
2	13937	6.439831046164	2
2	13977	6.453919887806	3
2	13994	6.462423887806	2
2	14023	6.470927887806	3
2	14049	6.479431887806	2
2	14078	6.487935887806	3
2	14096	6.496439887806	2
2	14118	6.504943887806	3
2	14128	6.513447887806	2
2	14157	6.534750300244	3
2	14165	6.543254300244	2
2	14194	6.556286377612	3
2	14202	6.564790377612	2
2	14231	6.585838108845	3
2	14248	6.594342108845	2
2	14281	6.607547731211	3
2	14299	6.616051731211	2
2	14340	6.632431435335	3
2	14354	6.640935435335	2
2	14384	6.663024481395	3
2	14401	6.671528481395	2
2	14442	6.729123836834	3
2	14456	6.737627836834	2
2	14493	6.754640711947	3
2	14507	6.763144711947	2
2	14537	6.783098717892	3
2	14554	6.791602717892	2
2	14588	6.818586649399	3
2	14596	6.827090649399	2
2	14632	6.844040502881	3
2	14652	6.852544502881	2
2	14681	6.861048502881	3
2	14703	6.869552502881	2
2	14732	6.878056502881	3
2	14758	6.886560502881	2
2	14783	6.895064502881	3
2	14813	6.903568502881	2
2	14850	6.912072502881	3
2	14872	6.920576502881	2
2	14901	6.929080502881	3
2	14919	6.937584502881	2
2	14944	6.946088502881	3
2	14966	6.954592502881	2
2	14995	6.963096502881	3
2	15013	6.971600502881	2
2	15046	6.980104502881	3
2	15068	6.988608502881	2
2	15101	6.997112502881	3
2	15123	7.005616502881	2
2	15152	7.014120502881	3
2	15170	7.022624502881	2
2	15195	7.031128502881	3
2	15213	7.039632502881	2
2	15242	7.048136502881	3
2	15258	7.056640502881	2
2	15295	7.073545220792	3
2	15315	7.082049220792	2
2	15344	7.090553220792	3
2	15370	7.099057220792	2
2	15399	7.107561220792	3
2	15421	7.116065220792	2
2	15450	7.124569220792	3
2	15476	7.133073220792	2
2	15505	7.141577220792	3
2	15523	7.150081220792	2
2	15556	7.158585220792	3
2	15574	7.167089220792	2
2	15599	7.175593220792	3
2	15615	7.184097220792	2
2	15645	7.202976663306	3
2	15662	7.211480663306	2
2	15702	7.224563610344	3
2	15717	7.233067610344	2
2	15754	7.254102024586	3
2	15774	7.262606024586	2
2	15803	7.271110024586	3
2	15819	7.279614024586	2
2	15856	7.30332569188	3
2	15870	7.31182969188	2
2	15900	7.341735692149	3
2	15917	7.350239692149	2
2	15950	7.360999922188	3
2	15972	7.369503922188	2
2	16000	7.378563813961	3
2	16019	7.387067813961	2
2	16053	7.40083096924	3
2	16061	7.40933496924	2
2	16101	7.421523671866	3
2	16117	7.430027671866	2
2	16139	7.438531671866	3
2	16149	7.447035671866	2
2	16185	7.47827383129	3
2	16199	7.48677783129	2
2	16229	7.518704478949	3
2	16246	7.527208478949	2
2	16286	7.540586881198	3
2	16301	7.549090881198	2
2	16346	7.58350833307	3
2	16362	7.59201233307	2
2	16395	7.60051633307	3
2	16421	7.60902033307	2
2	16446	7.61752433307	3
2	16464	7.62602833307	2
2	16497	7.63453233307	3
2	16523	7.64303633307	2
2	16548	7.65154033307	3
2	16570	7.66004433307	2
2	16595	7.66854833307	3
2	16613	7.67705233307	2
2	16635	7.68555633307	3
2	16654	7.69406033307	2
2	16695	7.728834096561	3
2	16715	7.737338096561	2
2	16737	7.745842096561	3
2	16747	7.754346096561	2
2	16776	7.767049091115	3
2	16784	7.775553091115	2
2	16819	7.785269520896	3
2	16834	7.793773520896	2
2	16871	7.805499264836	3
2	16885	7.814003264836	2
2	16926	7.835497125304	3
2	16946	7.844001125304	2
2	16979	7.852505125304	3
2	16997	7.861009125304	2
2	17022	7.869513125304	3
2	17038	7.878017125304	2
2	17068	7.905670371589	3
2	17076	7.914174371589	2
2	17112	7.932898000628	3
2	17132	7.941402000628	2
2	17161	7.949906000628	3
2	17183	7.958410000628	2
2	17205	7.966914000628	3
2	17215	7.975418000628	2
2	17255	8.001775752273	3
2	17275	8.010279752273	2
2	17316	8.018783752273	3
2	17334	8.027287752273	2
2	17359	8.035791752273	3
2	17381	8.044295752273	2
2	17418	8.052799752273	3
2	17440	8.061303752273	2
2	17465	8.069807752273	3
2	17487	8.078311752273	2
2	17516	8.086815752273	3
2	17534	8.095319752273	2
2	17559	8.103823752273	3
2	17581	8.112327752273	2
2	17606	8.120831752273	3
2	17632	8.129335752273	2
2	17661	8.137839752273	3
2	17679	8.146343752273	2
2	17701	8.154847752273	3
2	17720	8.163351752273	2
2	17761	8.181751291316	3
2	17775	8.190255291316	2
2	17805	8.200730679128	3
2	17826	8.209234679128	2
2	17865	8.219129539806	3
2	17883	8.227633539806	2
2	17916	8.236137539806	3
2	17934	8.244641539806	2
2	17956	8.253145539806	3
2	17975	8.261649539806	2
2	18009	8.280571463809	3
2	18017	8.289075463809	2
2	18053	8.30720301007	3
2	18067	8.31570701007	2
2	18097	8.340434710385	3
2	18105	8.348938710385	2
2	18134	8.378563877843	3
2	18142	8.387067877843	2
2	18171	8.397658305003	3
2	18179	8.406162305003	2
2	18215	8.455709354392	3
2	18229	8.464213354392	2
2	18259	8.483608985799	3
2	18267	8.492112985799	2
2	18295	8.50128034015	3
2	18313	8.50978434015	2
2	18354	8.528620850236	3
2	18374	8.537124850236	2
2	18415	8.545628850236	3
2	18441	8.554132850236	2
2	18474	8.562636850236	3
2	18492	8.571140850236	2
2	18517	8.579644850236	3
2	18539	8.588148850236	2
2	18564	8.596652850236	3
2	18582	8.605156850236	2
2	18611	8.613660850236	3
2	18629	8.622164850236	2
2	18651	8.630668850236	3
2	18661	8.639172850236	2
2	18696	8.648608892363	3
2	18711	8.657112892363	2
2	18748	8.668430146023	3
2	18772	8.676934146023	2
2	18805	8.685438146023	3
2	18835	8.693942146023	2
2	18860	8.702446146023	3
2	18878	8.710950146023	2
2	18907	8.719454146023	3
2	18925	8.727958146023	2
2	18958	8.736462146023	3
2	18976	8.744966146023	2
2	19001	8.753470146023	3
2	19017	8.761974146023	2
2	19045	8.771643831238	3
2	19064	8.780147831238	2
2	19097	8.790548724086	3
2	19119	8.799052724086	2
2	19159	8.810190620154	3
2	19180	8.818694620154	2
2	19213	8.827198620154	3
2	19231	8.835702620154	2
2	19260	8.844206620154	3
2	19282	8.852710620154	2
2	19311	8.861214620154	3
2	19333	8.869718620154	2
2	19358	8.878222620154	3
2	19380	8.886726620154	2
2	19409	8.895230620154	3
2	19435	8.903734620154	2
2	19460	8.912238620154	3
2	19482	8.920742620154	2
2	19504	8.929246620154	3
2	19514	8.937750620154	2
2	19543	8.971244867147	3
2	19564	8.979748867147	2
2	19593	8.991004964534	3
2	19611	8.999508964534	2
2	19652	9.028474908937	3
2	19672	9.036978908937	2
2	19694	9.045482908937	3
2	19704	9.053986908937	2
2	19733	9.074463314653	3
2	19754	9.082967314653	2
2	19794	9.09833687053	3
2	19811	9.10684087053	2
2	19833	9.11534487053	3
2	19843	9.12384887053	2
2	19872	9.144180897988	3
2	19889	9.152684897988	2
2	19930	9.166837940312	3
2	19944	9.175341940312	2
2	19974	9.18549849697	3
2	19991	9.19400249697	2
2	20025	9.213560687728	3
2	20033	9.222064687728	2
2	20069	9.241203970248	3
2	20083	9.249707970248	2
2	20120	9.274505364633	3
2	20140	9.283009364633	2
2	20169	9.291513364633	3
2	20191	9.300017364633	2
2	20213	9.308521364633	3
2	20232	9.317025364633	2
2	20266	9.335903449589	3
2	20283	9.344407449589	2
2	20327	9.359744485116	3
2	20348	9.368248485116	2
2	20377	9.376752485116	3
2	20395	9.385256485116	2
2	20417	9.393760485116	3
2	20427	9.402264485116	2
2	20467	9.424877869996	3
2	20483	9.433381869996	2
2	20512	9.441885869996	3
2	20528	9.450389869996	2
2	20558	9.490205179328	3
2	20566	9.498709179328	2
2	20605	9.508489222692	3
2	20626	9.516993222692	2
2	20651	9.525497222692	3
2	20667	9.534001222692	2
2	20702	9.543830650959	3
2	20724	9.552334650959	2
2	20746	9.560838650959	3
2	20756	9.569342650959	2
2	20785	9.587484750534	3
[...]
38	2769	1.369890219322	103
38	2819	1.414658851053	104
38	2870	1.433622993524	106
38	2930	1.453495047685	108
38	2959	1.470503047685	110
38	3004	1.501825284944	111
38	3059	1.525413640479	113
38	3120	1.543060053735	115
38	3171	1.560068053735	117
38	3212	1.577076053735	119
38	3264	1.594265224295	121
38	3302	1.612236579803	123
38	3365	1.637525951062	124
38	3416	1.654533951062	126
38	3454	1.671541951062	128
38	3522	1.696947416064	130
38	3565	1.713955416064	132
38	3594	1.730963416064	134
38	3653	1.757303043117	135
38	3708	1.774311043117	137
38	3755	1.791319043117	139
38	3797	1.808327043117	141
38	3861	1.84164284058	143
38	3908	1.85865084058	145
38	3937	1.87565884058	147
38	4000	1.894953433298	148
38	4038	1.911961433298	150
38	4102	1.952126563451	152
38	4157	1.969134563451	154
38	4204	1.986142563451	156
38	4242	2.003150563451	158
38	4288	2.025692047461	160
38	4361	2.050831543685	162
38	4408	2.067839543685	164
38	4455	2.084847543685	166
38	4484	2.101855543685	168
38	4529	2.131962421289	169
38	4572	2.15410365423	171
38	4631	2.172473628945	172
38	4673	2.189481628945	174
38	4724	2.254373466584	176
38	4762	2.271744238187	178
38	4807	2.295710301797	179
38	4866	2.352441638568	181
38	4927	2.370641399209	183
38	4974	2.387649399209	185
38	5003	2.404657399209	187
38	5056	2.430493565575	188
38	5113	2.452691220409	190
38	5150	2.469699220409	192
38	5201	2.524487681418	194
38	5244	2.545408664928	196
38	5289	2.568548986571	197
38	5340	2.593396167263	199
38	5391	2.617479926588	201
38	5447	2.641034365829	203
38	5507	2.675870539077	205
38	5544	2.692878539077	207
38	5595	2.734542792998	209
38	5668	2.755500993904	211
38	5711	2.772508993904	213
38	5753	2.789516993904	215
38	5813	2.811302011996	217
38	5850	2.828310011996	219
38	5893	2.85369653956	221
38	5943	2.87379318096	222
38	5994	2.916195479675	224
38	6045	2.938773952277	226
38	6095	2.95650811639	228
38	6156	2.977482584029	230
38	6193	2.994490584029	232
38	6258	3.024112515208	234
38	6309	3.041120515208	236
38	6346	3.058128515208	238
38	6419	3.082929637866	240
38	6470	3.099937637866	242
38	6521	3.116945637866	244
38	6572	3.133953637866	246
38	6623	3.150961637866	248
38	6682	3.167969637866	250
38	6725	3.184977637866	252
38	6772	3.201985637866	254
38	6810	3.218993637866	256
38	6860	3.252646947489	258
38	6921	3.275739233169	260
38	6958	3.292747233169	262
38	7023	3.318461768462	264
38	7052	3.335469768462	266
38	7102	3.354036775085	267
38	7153	3.377257243057	269
38	7204	3.400041918453	271
38	7255	3.430652312623	273
38	7293	3.451056377014	275
38	7330	3.494972264983	276
38	7367	3.518765251838	277
38	7404	3.536958078996	278
38	7453	3.587380392111	279
38	7522	3.612692500475	281
38	7573	3.629700500475	283
38	7616	3.646708500475	285
38	7653	3.663716500475	287
38	7718	3.688869146561	289
38	7755	3.705877146561	291
38	7824	3.728943179949	293
38	7871	3.745951179949	295
38	7900	3.762959179949	297
38	7950	3.791762375439	298
38	8014	3.83314272172	300
38	8052	3.85015072172	302
38	8103	3.872551897227	304
38	8141	3.889590594962	306
38	8191	3.90954618433	307
38	8229	3.933075347925	309
38	8292	3.954310785804	310
38	8343	3.971318785804	312
38	8394	3.988326785804	314
38	8445	4.005334785804	316
38	8492	4.022342785804	318
38	8534	4.039350785804	320
38	8584	4.065477522919	322
38	8645	4.082525619706	324
38	8682	4.099533619706	326
38	8751	4.127103549858	328
38	8802	4.144111549858	330
38	8849	4.161119549858	332
38	8878	4.178127549858	334
38	8923	4.208113913372	335
38	8979	4.231688635184	337
38	9043	4.264608428791	339
38	9090	4.281616428791	341
38	9127	4.298624428791	343
38	9196	4.317235479329	345
38	9251	4.334243479329	347
38	9310	4.351251479329	349
38	9353	4.368259479329	351
38	9404	4.385267479329	353
38	9451	4.402275479329	355
38	9489	4.419283479329	357
38	9553	4.439501134964	359
38	9600	4.456509134964	361
38	9651	4.473517134964	363
38	9693	4.490525134964	365
38	9761	4.514151785489	367
38	9804	4.531159785489	369
38	9833	4.548167785489	371
38	9882	4.567150881524	372
38	9934	4.585447104292	374
38	9985	4.613693131159	376
38	10049	4.674353582571	378
38	10087	4.691361582571	380
38	10125	4.724440199456	382
38	10175	4.757567452924	383
38	10221	4.780294481222	385
38	10290	4.805067103388	387
38	10337	4.822075103388	389
38	10379	4.839083103388	391
38	10425	4.856230999098	393
38	10502	4.881188369451	395
38	10549	4.898196369451	397
38	10600	4.915204369451	399
38	10647	4.932212369451	401
38	10702	4.949220369451	403
38	10749	4.966228369451	405
38	10800	4.983236369451	407
38	10838	5.000244369451	409
38	10906	5.04034701832	411
38	10949	5.05735501832	413
38	10991	5.07436301832	415
38	11037	5.095469162056	417
38	11093	5.116233782225	419
38	11153	5.137162793469	421
38	11204	5.154170793469	423
38	11233	5.171178793469	425
38	11270	5.201044807702	426
38	11329	5.22412967055	427
38	11358	5.24113767055	429
38	11403	5.25984119433	430
38	11446	5.284428505874	432
38	11505	5.324684135855	433
38	11542	5.341692135855	435
38	11585	5.360787916898	437
38	11644	5.392667713389	438
38	11686	5.409675713389	440
38	11754	5.443625099738	442
38	11797	5.460633099738	444
38	11838	5.477641099738	446
38	11890	5.494827746468	448
38	11954	5.527309561909	450
38	12005	5.544317561909	452
38	12052	5.561325561909	454
38	12103	5.578333561909	456
38	12145	5.595341561909	458
38	12196	5.62417758858	460
38	12246	5.645472387539	462
38	12307	5.663702305305	464
38	12366	5.680710305305	466
38	12413	5.697718305305	468
38	12464	5.714726305305	470
38	12515	5.731734305305	472
38	12562	5.748742305305	474
38	12613	5.765750305305	476
38	12642	5.782758305305	478
38	12701	5.806712564449	479
38	12730	5.823720564449	481
38	12793	5.854539658759	482
38	12840	5.871547658759	484
38	12869	5.888555658759	486
38	12919	5.918014004486	487
38	12970	5.963948859679	489
38	13016	5.990534556787	491
38	13059	6.013835621514	493
38	13122	6.036266536561	494
38	13160	6.053274536561	496
38	13211	6.094156086207	498
38	13262	6.124181789433	500
38	13308	6.155390319656	502
38	13373	6.172586319928	504
38	13402	6.189594319928	506
38	13439	6.222259574072	507
38	13484	6.249063252285	508
38	13543	6.274856176838	510
38	13591	6.292898650871	512
38	13641	6.313421754871	514
38	13706	6.334021917357	516
38	13761	6.351029917357	518
38	13808	6.368037917357	520
38	13859	6.385045917357	522
38	13897	6.402053917357	524
38	13947	6.439831718484	526
38	14008	6.462424560126	528
38	14063	6.479432560126	530
38	14110	6.496440560126	532
38	14139	6.513448560126	534
38	14176	6.543254972564	535
38	14213	6.564791049932	536
38	14258	6.594342781165	537
38	14309	6.616052403531	539
38	14365	6.640936107655	541
38	14411	6.671529153715	543
38	14467	6.737628509154	545
38	14518	6.763145384267	547
38	14564	6.791603390212	549
38	14607	6.827091321719	551
38	14666	6.852545175201	552
38	14717	6.869553175201	554
38	14772	6.886561175201	556
38	14827	6.903569175201	558
38	14886	6.920577175201	560
38	14933	6.937585175201	562
38	14980	6.954593175201	564
38	15027	6.971601175201	566
38	15082	6.988609175201	568
38	15137	7.005617175201	570
38	15184	7.022625175201	572
38	15227	7.039633175201	574
38	15269	7.056641175201	576
38	15329	7.082049893112	578
38	15384	7.099057893112	580
38	15435	7.116065893112	582
38	15490	7.133073893112	584
38	15537	7.150081893112	586
38	15588	7.167089893112	588
38	15626	7.184097893112	590
38	15672	7.211481335626	592
38	15728	7.233068282664	594
38	15788	7.262606696906	596
38	15830	7.279614696906	598
38	15881	7.3118303642	600
38	15927	7.350240364469	602
38	15982	7.369504594508	604
38	16029	7.387068486281	606
38	16072	7.40933564156	608
38	16131	7.430028344186	609
38	16160	7.447036344186	611
38	16210	7.48677850361	612
38	16256	7.527209151269	614
38	16312	7.549091553518	616
38	16376	7.59201300539	618
38	16435	7.60902100539	620
38	16478	7.62602900539	622
38	16537	7.64303700539	624
38	16584	7.66004500539	626
38	16627	7.67705300539	628
38	16664	7.69406100539	630
38	16729	7.737338768881	632
38	16758	7.754346768881	634
38	16795	7.775553763435	635
38	16845	7.793774193216	636
38	16896	7.814003937156	638
38	16960	7.844001797624	640
38	17011	7.861009797624	642
38	17049	7.878017797624	644
38	17087	7.914175043909	646
38	17146	7.941402672948	647
38	17197	7.958410672948	649
38	17226	7.975418672948	651
38	17289	8.010280424593	652
38	17348	8.027288424593	654
38	17395	8.044296424593	656
38	17454	8.061304424593	658
38	17501	8.078312424593	660
38	17548	8.095320424593	662
38	17595	8.112328424593	664
38	17646	8.129336424593	666
38	17693	8.146344424593	668
38	17730	8.163352424593	670
38	17786	8.190255963636	672
38	17836	8.209235351448	674
38	17897	8.227634212126	676
38	17948	8.244642212126	678
38	17985	8.261650212126	680
38	18028	8.289076136129	682
38	18078	8.31570768239	683
38	18116	8.348939382705	685
38	18153	8.387068550163	686
38	18190	8.406162977323	687
38	18240	8.464214026712	688
38	18278	8.492113658119	690
38	18323	8.50978501247	691
38	18388	8.537125522556	693
38	18455	8.554133522556	695
38	18506	8.571141522556	697
38	18553	8.588149522556	699
38	18596	8.605157522556	701
38	18643	8.622165522556	703
38	18672	8.639173522556	705
38	18722	8.657113564683	706
38	18786	8.676934818343	708
38	18849	8.693942818343	710
38	18892	8.710950818343	712
38	18939	8.727958818343	714
38	18990	8.744966818343	716
38	19028	8.761974818343	718
38	19074	8.780148503558	720
38	19129	8.799053396406	722
38	19194	8.818695292474	724
38	19245	8.835703292474	726
38	19296	8.852711292474	728
38	19347	8.869719292474	730
38	19394	8.886727292474	732
38	19449	8.903735292474	734
38	19496	8.920743292474	736
38	19525	8.937751292474	738
38	19574	8.979749539467	739
38	19621	8.999509636854	741
38	19686	9.036979581257	743
38	19715	9.053987581257	745
38	19764	9.082967986973	746
38	19825	9.10684154285	748
38	19854	9.12384954285	750
38	19899	9.152685570308	751
38	19955	9.175342612632	753
38	20001	9.19400316929	755
38	20044	9.222065360048	757
38	20094	9.249708642568	758
38	20154	9.283010036953	760
38	20205	9.300018036953	762
38	20242	9.317026036953	764
38	20293	9.344408121909	766
38	20362	9.368249157436	768
38	20409	9.385257157436	770
38	20438	9.402265157436	772
38	20497	9.433382542316	773
38	20539	9.450390542316	775
38	20577	9.498709851648	777
38	20640	9.516993895012	778
38	20678	9.534001895012	780
38	20738	9.552335323279	782
38	20767	9.569343323279	784
38	20804	9.595989422854	785
38	20853	9.61374432455	786
38	20892	9.633578019575	788
38	20949	9.657278128552	789
38	21002	9.679226437545	791
38	21039	9.696234437545	793
38	21090	9.719814395728	795
38	21145	9.745347773178	797
38	21192	9.763098221027	799
38	21248	9.785630526792	801
38	21316	9.804472896554	803
38	21367	9.821480896554	805
38	21418	9.838488896554	807
38	21473	9.855496896554	809
38	21532	9.872504896554	811
38	21579	9.889512896554	813
38	21634	9.906520896554	815
38	21681	9.923528896554	817
38	21728	9.940536896554	819
38	21775	9.957544896554	821
38	21838	9.974552896554	823
38	21889	9.991560896554	825
38	21936	10.008568896554	827
38	21983	10.025576896554	829
38	22034	10.042584896554	831
38	22081	10.059592896554	833
38	22124	10.076600896554	835
38	22175	10.093608896554	837
38	22226	10.110616896554	839
38	22268	10.127624896554	841
38	22306	10.174080699174	843
38	22369	10.198777793306	844
38	22407	10.215785793306	846
38	22445	10.241042756382	848
38	22494	10.263403388188	849
38	22555	10.280470722027	851
38	22597	10.297478722027	853
38	22657	10.314705807763	855
38	22712	10.331713807763	857
38	22759	10.348721807763	859
38	22810	10.365729807763	861
38	22852	10.382737807763	863
38	22890	10.400726311312	865
38	22940	10.420629431955	866
38	23000	10.44246737679	868
38	23029	10.45947537679	870
38	23092	10.496330221651	871
38	23143	10.513338221651	873
38	23194	10.530346221651	875
38	23232	10.547354221651	877
38	23270	10.584161814844	879
38	23307	10.609465824627	880
38	23370	10.681060653024	881
38	23429	10.698068653024	883
38	23472	10.715076653024	885
38	23519	10.732084653024	887
38	23560	10.749092653024	889
38	23599	10.768725722438	891
38	23644	10.791037563763	892
38	23713	10.813880701363	894
38	23760	10.830888701363	896
38	23789	10.847896701363	898
38	23834	10.878802024775	899
38	23890	10.907213481028	901
38	23954	10.925920597948	903
38	24001	10.942928597948	905
38	24052	10.959936597948	907
38	24081	10.976944597948	909
38	24126	11.025418308575	910
38	24177	11.070452980654	912
38	24246	11.090278306901	914
38	24297	11.107286306901	916
38	24335	11.124294306901	918
38	24381	11.162688751458	920
38	24446	11.187414913741	922
38	24483	11.204422913741	924
38	24534	11.225705120572	926
38	24577	11.251168358355	928
38	24614	11.278451185142	929
38	24673	11.337995578081	930
38	24702	11.355003578081	932
38	24761	11.372679386302	933
38	24803	11.389687386302	935
39	205	0.1	240000
39	404	0.2	320000
39	630	0.3	320000
39	919	0.4	480000
39	1132	0.5	320000
39	1298	0.6	320000
39	1452	0.7	240000
39	1629	0.8	320000
39	1818	0.9	320000
39	2017	1	320000
39	2134	1.1	240000
39	2405	1.2	400000
39	2681	1.3	480000
39	2819	1.4	240000
39	3004	1.5	320000
39	3302	1.6	480000
39	3565	1.7	400000
39	3797	1.8	400000
39	4038	1.9	400000
39	4242	2	320000
39	4484	2.1	400000
39	4724	2.2	400000
39	4866	2.3	240000
39	5003	2.4	240000
39	5201	2.5	320000
39	5391	2.6	320000
39	5595	2.7	320000
39	5813	2.8	320000
39	5994	2.9	320000
39	6258	3	400000
39	6521	3.1	400000
39	6772	3.2	400000
39	7023	3.3	400000
39	7204	3.4	320000
39	7367	3.5	320000
39	7522	3.6	240000
39	7755	3.7	400000
39	8014	3.8	400000
39	8191	3.9	320000
39	8445	4	400000
39	8751	4.1	480000
39	8923	4.2	320000
39	9196	4.3	400000
39	9451	4.4	400000
39	9761	4.5	480000
39	9985	4.6	400000
39	10125	4.7	240000
39	10290	4.8	240000
39	10600	4.9	480000
39	10838	5	400000
39	11093	5.1	400000
39	11270	5.2	320000
39	11505	5.3	400000
39	11686	5.4	320000
39	11954	5.5	400000
39	12196	5.6	400000
39	12464	5.7	400000
39	12701	5.8	400000
39	12919	5.9	400000
39	13059	6	240000
39	13262	6.1	320000
39	13439	6.2	320000
39	13641	6.3	320000
39	13897	6.4	400000
39	14139	6.5	400000
39	14309	6.6	320000
39	14467	6.7	240000
39	14607	6.8	240000
39	14827	6.9	320000
39	15137	7	480000
39	15435	7.1	480000
39	15672	7.2	400000
39	15881	7.3	320000
39	16072	7.4	320000
39	16256	7.5	320000
39	16435	7.6	240000
39	16729	7.7	480000
39	16896	7.8	320000
39	17087	7.9	320000
39	17289	8	320000
39	17595	8.1	480000
39	17836	8.2	400000
39	18078	8.3	400000
39	18190	8.4	240000
39	18323	8.5	240000
39	18596	8.6	400000
39	18892	8.7	480000
39	19194	8.8	480000
39	19449	8.9	400000
39	19686	9	400000
39	19825	9.1	240000
39	20044	9.2	400000
39	20205	9.3	240000
39	20438	9.4	400000
39	20640	9.5	320000
39	20853	9.6	400000
39	21090	9.7	400000
39	21316	9.8	320000
39	21634	9.9	480000
39	21936	10	480000
39	22226	10.1	480000
39	22407	10.2	320000
39	22657	10.3	400000
39	22890	10.4	400000
39	23143	10.5	400000
39	23307	10.6	320000
39	23472	10.7	240000
39	23713	10.8	400000
39	23890	10.9	320000
39	24126	11	400000
39	24297	11.1	240000
39	24483	11.2	320000
39	24673	11.3	320000
40	1157	0.534344366712	1051
40	1245	0.589195874949	1051
40	1486	0.730934914925	1051
40	1625	0.805328426198	1051
40	1662	0.848002457206	1051
40	1954	0.996346383009	1051
40	2042	1.043401324406	1051
40	2130	1.101721041777	1051
40	2677	1.321052840978	1051
40	2765	1.369890219322	1051
40	2955	1.470503047685	1051
40	3298	1.612236579803	1051
40	3590	1.730963416064	1051
40	3933	1.87565884058	1051
40	4480	2.101855543685	1051
40	4568	2.15410365423	1051
40	4758	2.271744238187	1051
40	4999	2.404657399209	1051
40	5240	2.545408664928	1051
40	5889	2.85369653956	1051
40	7048	3.335469768462	1051
40	7289	3.451056377014	1051
40	7326	3.494972264983	1051
40	7363	3.518765251838	1051
40	7400	3.536958078996	1051
40	7896	3.762959179949	1051
40	8137	3.889590594962	1051
40	8225	3.933075347925	1051
40	8874	4.178127549858	1051
40	9829	4.548167785489	1051
40	10121	4.724440199456	1051
40	11229	5.171178793469	1051
40	11266	5.201044807702	1051
40	11354	5.24113767055	1051
40	11442	5.284428505874	1051
40	11581	5.360787916898	1051
40	12638	5.782758305305	1051
40	12726	5.823720564449	1051
40	12865	5.888555658759	1051
40	13055	6.013835621514	1051
40	13398	6.189594319928	1051
40	13435	6.222259574072	1051
40	14135	6.513448560126	1051
40	14172	6.543254972564	1051
40	14209	6.564791049932	1051
40	14603	6.827091321719	1051
40	16068	7.40933564156	1051
40	16156	7.447036344186	1051
40	16754	7.754346768881	1051
40	16791	7.775553763435	1051
40	17083	7.914175043909	1051
40	17222	7.975418672948	1051
40	18024	8.289076136129	1051
40	18112	8.348939382705	1051
40	18149	8.387068550163	1051
40	18186	8.406162977323	1051
40	18274	8.492113658119	1051
40	18668	8.639173522556	1051
40	19521	8.937751292474	1051
40	19711	9.053987581257	1051
40	19850	9.12384954285	1051
40	20040	9.222065360048	1051
40	20434	9.402265157436	1051
40	20573	9.498709851648	1051
40	20763	9.569343323279	1051
40	20800	9.595989422854	1051
40	20888	9.633578019575	1051
40	22302	10.174080699174	1051
40	22441	10.241042756382	1051
40	22886	10.400726311312	1051
40	23025	10.45947537679	1051
40	23266	10.584161814844	1051
40	23303	10.609465824627	1051
40	23595	10.768725722438	1051
40	23785	10.847896701363	1051
40	24077	10.976944597948	1051
40	24573	11.251168358355	1051
40	24610	11.278451185142	1051
40	24698	11.355003578081	1051
41	1157	0.534344366712	1051
41	1245	0.589195874949	1051
41	1486	0.730934914925	1051
41	1625	0.805328426198	1051
41	1662	0.848002457206	1051
41	1954	0.996346383009	1051
41	2042	1.043401324406	1051
41	2130	1.101721041777	1051
41	2677	1.321052840978	1051
41	2765	1.369890219322	1051
41	2955	1.470503047685	1051
41	3298	1.612236579803	1051
41	3590	1.730963416064	1051
41	3933	1.87565884058	1051
41	4480	2.101855543685	1051
41	4568	2.15410365423	1051
41	4758	2.271744238187	1051
41	4999	2.404657399209	1051
41	5240	2.545408664928	1051
41	5889	2.85369653956	1051
41	7048	3.335469768462	1051
41	7289	3.451056377014	1051
41	7326	3.494972264983	1051
41	7363	3.518765251838	1051
41	7400	3.536958078996	1051
41	7896	3.762959179949	1051
41	8137	3.889590594962	1051
41	8225	3.933075347925	1051
41	8874	4.178127549858	1051
41	9829	4.548167785489	1051
41	10121	4.724440199456	1051
41	11229	5.171178793469	1051
41	11266	5.201044807702	1051
41	11354	5.24113767055	1051
41	11442	5.284428505874	1051
41	11581	5.360787916898	1051
41	12638	5.782758305305	1051
41	12726	5.823720564449	1051
41	12865	5.888555658759	1051
41	13055	6.013835621514	1051
41	13398	6.189594319928	1051
41	13435	6.222259574072	1051
41	14135	6.513448560126	1051
41	14172	6.543254972564	1051
41	14209	6.564791049932	1051
41	14603	6.827091321719	1051
41	16068	7.40933564156	1051
41	16156	7.447036344186	1051
41	16754	7.754346768881	1051
41	16791	7.775553763435	1051
41	17083	7.914175043909	1051
41	17222	7.975418672948	1051
41	18024	8.289076136129	1051
41	18112	8.348939382705	1051
41	18149	8.387068550163	1051
41	18186	8.406162977323	1051
41	18274	8.492113658119	1051
41	18668	8.639173522556	1051
41	19521	8.937751292474	1051
41	19711	9.053987581257	1051
41	19850	9.12384954285	1051
41	20040	9.222065360048	1051
41	20434	9.402265157436	1051
41	20573	9.498709851648	1051
41	20763	9.569343323279	1051
41	20800	9.595989422854	1051
41	20888	9.633578019575	1051
41	22302	10.174080699174	1051
41	22441	10.241042756382	1051
41	22886	10.400726311312	1051
41	23025	10.45947537679	1051
41	23266	10.584161814844	1051
41	23303	10.609465824627	1051
41	23595	10.768725722438	1051
41	23785	10.847896701363	1051
41	24077	10.976944597948	1051
41	24573	11.251168358355	1051
41	24610	11.278451185142	1051
41	24698	11.355003578081	1051

